C10H16O
APtclcactv05262212103D 0   0.00000     0.00000
 
 27 27  0  0  1  0  0  0  0  0999 V2000
    3.3525    0.5436    0.0579 C   0  0  0  0  0  0  0  0  0  0  0  0
    1.8977    0.5037   -0.4142 C   0  0  2  0  0  0  0  0  0  0  0  0
    1.8530    0.7222   -1.4812 H   0  0  0  0  0  0  0  0  0  0  0  0
    1.0771    1.5417    0.3585 C   0  0  0  0  0  0  0  0  0  0  0  0
   -0.3997    1.4020   -0.0144 C   0  0  0  0  0  0  0  0  0  0  0  0
   -0.9175    0.0307    0.4227 C   0  0  2  0  0  0  0  0  0  0  0  0
   -0.7486   -0.0977    1.4919 H   0  0  0  0  0  0  0  0  0  0  0  0
   -0.1720   -1.0642   -0.3476 C   0  0  0  0  0  0  0  0  0  0  0  0
    1.3157   -0.8676   -0.1516 C   0  0  0  0  0  0  0  0  0  0  0  0
    2.0185   -1.7804    0.2106 O   0  0  0  0  0  0  0  0  0  0  0  0
   -2.3930   -0.0655    0.1318 C   0  0  0  0  0  0  0  0  0  0  0  0
   -3.2409   -0.2743    1.1084 C   0  0  0  0  0  0  0  0  0  0  0  0
   -2.8931    0.0784   -1.2824 C   0  0  0  0  0  0  0  0  0  0  0  0
    3.3943    0.3249    1.1249 H   0  0  0  0  0  0  0  0  0  0  0  0
    3.9323   -0.2002   -0.4885 H   0  0  0  0  0  0  0  0  0  0  0  0
    3.7672    1.5347   -0.1263 H   0  0  0  0  0  0  0  0  0  0  0  0
    1.1988    1.3775    1.4292 H   0  0  0  0  0  0  0  0  0  0  0  0
    1.4236    2.5429    0.1024 H   0  0  0  0  0  0  0  0  0  0  0  0
   -0.9747    2.1822    0.4844 H   0  0  0  0  0  0  0  0  0  0  0  0
   -0.5121    1.5045   -1.0938 H   0  0  0  0  0  0  0  0  0  0  0  0
   -0.4653   -2.0431    0.0316 H   0  0  0  0  0  0  0  0  0  0  0  0
   -0.4111   -0.9928   -1.4087 H   0  0  0  0  0  0  0  0  0  0  0  0
   -4.2983   -0.3432    0.8999 H   0  0  0  0  0  0  0  0  0  0  0  0
   -2.8824   -0.3774    2.1219 H   0  0  0  0  0  0  0  0  0  0  0  0
   -2.4507   -0.6992   -1.9052 H   0  0  0  0  0  0  0  0  0  0  0  0
   -3.9787   -0.0194   -1.2957 H   0  0  0  0  0  0  0  0  0  0  0  0
   -2.6118    1.0577   -1.6695 H   0  0  0  0  0  0  0  0  0  0  0  0
  1  2  1  0  0  0  0
  2  3  1  0  0  0  0
  2  4  1  0  0  0  0
  4  5  1  0  0  0  0
  5  6  1  0  0  0  0
  6  7  1  0  0  0  0
  6  8  1  0  0  0  0
  8  9  1  0  0  0  0
  2  9  1  0  0  0  0
  9 10  2  0  0  0  0
  6 11  1  0  0  0  0
 11 12  2  0  0  0  0
 11 13  1  0  0  0  0
  1 14  1  0  0  0  0
  1 15  1  0  0  0  0
  1 16  1  0  0  0  0
  4 17  1  0  0  0  0
  4 18  1  0  0  0  0
  5 19  1  0  0  0  0
  5 20  1  0  0  0  0
  8 21  1  0  0  0  0
  8 22  1  0  0  0  0
 12 23  1  0  0  0  0
 12 24  1  0  0  0  0
 13 25  1  0  0  0  0
 13 26  1  0  0  0  0
 13 27  1  0  0  0  0
M  END
$$$$
