C10H14O
APtclcactv05262212113D 0   0.00000     0.00000
 
 25 25  0  0  1  0  0  0  0  0999 V2000
    3.3864    0.6699    0.0722 C   0  0  0  0  0  0  0  0  0  0  0  0
    1.8927    0.4800    0.0101 C   0  0  0  0  0  0  0  0  0  0  0  0
    1.0928    1.5384    0.0547 C   0  0  0  0  0  0  0  0  0  0  0  0
   -0.4024    1.4410   -0.0108 C   0  0  0  0  0  0  0  0  0  0  0  0
   -0.8834    0.0514    0.4045 C   0  0  2  0  0  0  0  0  0  0  0  0
   -0.6780   -0.1042    1.4635 H   0  0  0  0  0  0  0  0  0  0  0  0
   -0.1377   -1.0046   -0.4240 C   0  0  0  0  0  0  0  0  0  0  0  0
    1.3364   -0.8722   -0.1052 C   0  0  0  0  0  0  0  0  0  0  0  0
    2.0335   -1.8519    0.0568 O   0  0  0  0  0  0  0  0  0  0  0  0
   -2.3653   -0.0642    0.1560 C   0  0  0  0  0  0  0  0  0  0  0  0
   -3.1789   -0.3138    1.1519 C   0  0  0  0  0  0  0  0  0  0  0  0
   -2.9112    0.1071   -1.2382 C   0  0  0  0  0  0  0  0  0  0  0  0
    3.7126    0.6469    1.1120 H   0  0  0  0  0  0  0  0  0  0  0  0
    3.8777   -0.1308   -0.4806 H   0  0  0  0  0  0  0  0  0  0  0  0
    3.6491    1.6310   -0.3699 H   0  0  0  0  0  0  0  0  0  0  0  0
    1.5405    2.5173    0.1427 H   0  0  0  0  0  0  0  0  0  0  0  0
   -0.8385    2.1844    0.6565 H   0  0  0  0  0  0  0  0  0  0  0  0
   -0.7294    1.6423   -1.0309 H   0  0  0  0  0  0  0  0  0  0  0  0
   -0.4884   -2.0013   -0.1565 H   0  0  0  0  0  0  0  0  0  0  0  0
   -0.3014   -0.8257   -1.4867 H   0  0  0  0  0  0  0  0  0  0  0  0
   -2.7877   -0.4365    2.1511 H   0  0  0  0  0  0  0  0  0  0  0  0
   -4.2409   -0.3967    0.9739 H   0  0  0  0  0  0  0  0  0  0  0  0
   -2.9363   -0.8602   -1.7400 H   0  0  0  0  0  0  0  0  0  0  0  0
   -3.9205    0.5154   -1.1855 H   0  0  0  0  0  0  0  0  0  0  0  0
   -2.2717    0.7900   -1.7974 H   0  0  0  0  0  0  0  0  0  0  0  0
  1  2  1  0  0  0  0
  2  3  2  0  0  0  0
  3  4  1  0  0  0  0
  4  5  1  0  0  0  0
  5  6  1  0  0  0  0
  5  7  1  0  0  0  0
  7  8  1  0  0  0  0
  2  8  1  0  0  0  0
  8  9  2  0  0  0  0
  5 10  1  0  0  0  0
 10 11  2  0  0  0  0
 10 12  1  0  0  0  0
  1 13  1  0  0  0  0
  1 14  1  0  0  0  0
  1 15  1  0  0  0  0
  3 16  1  0  0  0  0
  4 17  1  0  0  0  0
  4 18  1  0  0  0  0
  7 19  1  0  0  0  0
  7 20  1  0  0  0  0
 11 21  1  0  0  0  0
 11 22  1  0  0  0  0
 12 23  1  0  0  0  0
 12 24  1  0  0  0  0
 12 25  1  0  0  0  0
M  END
$$$$
