C10H18O
APtclcactv05262212113D 0   0.00000     0.00000
 
 29 29  0  0  1  0  0  0  0  0999 V2000
    3.2916    0.7335    0.0278 C   0  0  0  0  0  0  0  0  0  0  0  0
    1.8244    0.4941   -0.3342 C   0  0  2  0  0  0  0  0  0  0  0  0
    1.7291    0.3910   -1.4151 H   0  0  0  0  0  0  0  0  0  0  0  0
    0.9818    1.6793    0.1413 C   0  0  0  0  0  0  0  0  0  0  0  0
   -0.4853    1.4399   -0.2207 C   0  0  0  0  0  0  0  0  0  0  0  0
   -0.9760    0.1600    0.4590 C   0  0  2  0  0  0  0  0  0  0  0  0
   -0.8807    0.2631    1.5399 H   0  0  0  0  0  0  0  0  0  0  0  0
   -0.1335   -1.0252   -0.0166 C   0  0  0  0  0  0  0  0  0  0  0  0
    1.3337   -0.7858    0.3454 C   0  0  1  0  0  0  0  0  0  0  0  0
    1.4290   -0.6827    1.4263 H   0  0  0  0  0  0  0  0  0  0  0  0
    2.1207   -1.8928   -0.0988 O   0  0  0  0  0  0  0  0  0  0  0  0
   -2.4211   -0.0758    0.1024 C   0  0  0  0  0  0  0  0  0  0  0  0
   -3.3286   -0.1272    1.0457 C   0  0  0  0  0  0  0  0  0  0  0  0
   -2.8223   -0.2524   -1.3395 C   0  0  0  0  0  0  0  0  0  0  0  0
    3.3869    0.8366    1.1087 H   0  0  0  0  0  0  0  0  0  0  0  0
    3.8918   -0.1109   -0.3110 H   0  0  0  0  0  0  0  0  0  0  0  0
    3.6412    1.6453   -0.4564 H   0  0  0  0  0  0  0  0  0  0  0  0
    1.0772    1.7824    1.2223 H   0  0  0  0  0  0  0  0  0  0  0  0
    1.3314    2.5912   -0.3429 H   0  0  0  0  0  0  0  0  0  0  0  0
   -1.0856    2.2843    0.1181 H   0  0  0  0  0  0  0  0  0  0  0  0
   -0.5807    1.3368   -1.3016 H   0  0  0  0  0  0  0  0  0  0  0  0
   -0.4830   -1.9370    0.4676 H   0  0  0  0  0  0  0  0  0  0  0  0
   -0.2288   -1.1283   -1.0975 H   0  0  0  0  0  0  0  0  0  0  0  0
    1.8647   -2.7394    0.2923 H   0  0  0  0  0  0  0  0  0  0  0  0
   -4.3642   -0.2962    0.7902 H   0  0  0  0  0  0  0  0  0  0  0  0
   -3.0411   -0.0006    2.0791 H   0  0  0  0  0  0  0  0  0  0  0  0
   -1.9391   -0.1789   -1.9740 H   0  0  0  0  0  0  0  0  0  0  0  0
   -3.2837   -1.2312   -1.4710 H   0  0  0  0  0  0  0  0  0  0  0  0
   -3.5343    0.5251   -1.6164 H   0  0  0  0  0  0  0  0  0  0  0  0
  1  2  1  0  0  0  0
  2  3  1  0  0  0  0
  2  4  1  0  0  0  0
  4  5  1  0  0  0  0
  5  6  1  0  0  0  0
  6  7  1  0  0  0  0
  6  8  1  0  0  0  0
  8  9  1  0  0  0  0
  9 10  1  0  0  0  0
  2  9  1  0  0  0  0
  9 11  1  0  0  0  0
  6 12  1  0  0  0  0
 12 13  2  0  0  0  0
 12 14  1  0  0  0  0
  1 15  1  0  0  0  0
  1 16  1  0  0  0  0
  1 17  1  0  0  0  0
  4 18  1  0  0  0  0
  4 19  1  0  0  0  0
  5 20  1  0  0  0  0
  5 21  1  0  0  0  0
  8 22  1  0  0  0  0
  8 23  1  0  0  0  0
 11 24  1  0  0  0  0
 13 25  1  0  0  0  0
 13 26  1  0  0  0  0
 14 27  1  0  0  0  0
 14 28  1  0  0  0  0
 14 29  1  0  0  0  0
M  END
$$$$
