C10H18O
APtclcactv05262212113D 0   0.00000     0.00000
 
 29 29  0  0  1  0  0  0  0  0999 V2000
    3.6962    0.1161    0.1110 C   0  0  0  0  0  0  0  0  0  0  0  0
    2.2238    0.1021   -0.3046 C   0  0  2  0  0  0  0  0  0  0  0  0
    2.1530    0.0281   -1.3897 H   0  0  0  0  0  0  0  0  0  0  0  0
    1.5492    1.3925    0.1639 C   0  0  0  0  0  0  0  0  0  0  0  0
    0.1001    1.4268   -0.3244 C   0  0  0  0  0  0  0  0  0  0  0  0
   -0.6804    0.2742    0.3162 C   0  0  2  0  0  0  0  0  0  0  0  0
   -0.7378    0.4254    1.3941 H   0  0  0  0  0  0  0  0  0  0  0  0
    0.0457   -1.0199    0.0227 C   0  0  0  0  0  0  0  0  0  0  0  0
   -0.5392   -1.9647   -0.4502 O   0  0  0  0  0  0  0  0  0  0  0  0
    1.5233   -1.1006    0.3365 C   0  0  0  0  0  0  0  0  0  0  0  0
   -2.0922    0.2206   -0.2711 C   0  0  0  0  0  0  0  0  0  0  0  0
   -2.8682   -0.9312    0.3708 C   0  0  0  0  0  0  0  0  0  0  0  0
   -2.8124    1.5406    0.0112 C   0  0  0  0  0  0  0  0  0  0  0  0
    3.7668    0.1901    1.1962 H   0  0  0  0  0  0  0  0  0  0  0  0
    4.1766   -0.8038   -0.2225 H   0  0  0  0  0  0  0  0  0  0  0  0
    4.1942    0.9719   -0.3447 H   0  0  0  0  0  0  0  0  0  0  0  0
    1.5657    1.4352    1.2529 H   0  0  0  0  0  0  0  0  0  0  0  0
    2.0879    2.2499   -0.2395 H   0  0  0  0  0  0  0  0  0  0  0  0
   -0.3562    2.3757   -0.0424 H   0  0  0  0  0  0  0  0  0  0  0  0
    0.0793    1.3214   -1.4091 H   0  0  0  0  0  0  0  0  0  0  0  0
    1.9343   -2.0242   -0.0712 H   0  0  0  0  0  0  0  0  0  0  0  0
    1.6701   -1.0766    1.4163 H   0  0  0  0  0  0  0  0  0  0  0  0
   -2.0320    0.0626   -1.3479 H   0  0  0  0  0  0  0  0  0  0  0  0
   -2.9284   -0.7732    1.4476 H   0  0  0  0  0  0  0  0  0  0  0  0
   -3.8739   -0.9694   -0.0476 H   0  0  0  0  0  0  0  0  0  0  0  0
   -2.3550   -1.8716    0.1697 H   0  0  0  0  0  0  0  0  0  0  0  0
   -2.2596    2.3612   -0.4461 H   0  0  0  0  0  0  0  0  0  0  0  0
   -3.8182    1.5024   -0.4072 H   0  0  0  0  0  0  0  0  0  0  0  0
   -2.8726    1.6986    1.0880 H   0  0  0  0  0  0  0  0  0  0  0  0
  1  2  1  0  0  0  0
  2  3  1  0  0  0  0
  2  4  1  0  0  0  0
  4  5  1  0  0  0  0
  5  6  1  0  0  0  0
  6  7  1  0  0  0  0
  6  8  1  0  0  0  0
  8  9  2  0  0  0  0
  8 10  1  0  0  0  0
  2 10  1  0  0  0  0
  6 11  1  0  0  0  0
 11 12  1  0  0  0  0
 11 13  1  0  0  0  0
  1 14  1  0  0  0  0
  1 15  1  0  0  0  0
  1 16  1  0  0  0  0
  4 17  1  0  0  0  0
  4 18  1  0  0  0  0
  5 19  1  0  0  0  0
  5 20  1  0  0  0  0
 10 21  1  0  0  0  0
 10 22  1  0  0  0  0
 11 23  1  0  0  0  0
 12 24  1  0  0  0  0
 12 25  1  0  0  0  0
 12 26  1  0  0  0  0
 13 27  1  0  0  0  0
 13 28  1  0  0  0  0
 13 29  1  0  0  0  0
M  END
$$$$
