C12H16O2
APtclcactv05262212103D 0   0.00000     0.00000
 
 30 30  0  0  0  0  0  0  0  0999 V2000
    3.8479    0.5137    1.1322 C   0  0  0  0  0  0  0  0  0  0  0  0
    3.1826   -0.2001   -0.0463 C   0  0  0  0  0  0  0  0  0  0  0  0
    3.7482    0.3463   -1.3587 C   0  0  0  0  0  0  0  0  0  0  0  0
    3.4618   -1.7017    0.0434 C   0  0  0  0  0  0  0  0  0  0  0  0
    1.6951    0.0378   -0.0027 C   0  0  0  0  0  0  0  0  0  0  0  0
    1.2001    1.3271   -0.0695 C   0  0  0  0  0  0  0  0  0  0  0  0
   -0.1630    1.5478   -0.0293 C   0  0  0  0  0  0  0  0  0  0  0  0
   -1.0354    0.4744    0.0777 C   0  0  0  0  0  0  0  0  0  0  0  0
   -2.3768    0.6889    0.1170 O   0  0  0  0  0  0  0  0  0  0  0  0
   -3.2151   -0.4630    0.2279 C   0  0  0  0  0  0  0  0  0  0  0  0
   -4.6590   -0.0327    0.2568 C   0  0  0  0  0  0  0  0  0  0  0  0
   -5.4418   -0.4911   -0.5403 O   0  0  0  0  0  0  0  0  0  0  0  0
   -0.5363   -0.8183    0.1441 C   0  0  0  0  0  0  0  0  0  0  0  0
    0.8275   -1.0340    0.0983 C   0  0  0  0  0  0  0  0  0  0  0  0
    3.6490    1.5834    1.0683 H   0  0  0  0  0  0  0  0  0  0  0  0
    3.4450    0.1244    2.0672 H   0  0  0  0  0  0  0  0  0  0  0  0
    4.9238    0.3416    1.1007 H   0  0  0  0  0  0  0  0  0  0  0  0
    4.8241    0.1743   -1.3902 H   0  0  0  0  0  0  0  0  0  0  0  0
    3.2742   -0.1622   -2.1983 H   0  0  0  0  0  0  0  0  0  0  0  0
    3.5493    1.4161   -1.4226 H   0  0  0  0  0  0  0  0  0  0  0  0
    3.0588   -2.0910    0.9784 H   0  0  0  0  0  0  0  0  0  0  0  0
    2.9878   -2.2102   -0.7961 H   0  0  0  0  0  0  0  0  0  0  0  0
    4.5377   -1.8738    0.0119 H   0  0  0  0  0  0  0  0  0  0  0  0
    1.8797    2.1623   -0.1529 H   0  0  0  0  0  0  0  0  0  0  0  0
   -0.5491    2.5551   -0.0808 H   0  0  0  0  0  0  0  0  0  0  0  0
   -3.0481   -1.1176   -0.6275 H   0  0  0  0  0  0  0  0  0  0  0  0
   -2.9770   -0.9984    1.1471 H   0  0  0  0  0  0  0  0  0  0  0  0
   -4.9938    0.6857    0.9905 H   0  0  0  0  0  0  0  0  0  0  0  0
   -1.2134   -1.6554    0.2278 H   0  0  0  0  0  0  0  0  0  0  0  0
    1.2166   -2.0402    0.1496 H   0  0  0  0  0  0  0  0  0  0  0  0
  1  2  1  0  0  0  0
  2  3  1  0  0  0  0
  2  4  1  0  0  0  0
  2  5  1  0  0  0  0
  5  6  1  0  0  0  0
  6  7  2  0  0  0  0
  7  8  1  0  0  0  0
  8  9  1  0  0  0  0
  9 10  1  0  0  0  0
 10 11  1  0  0  0  0
 11 12  2  0  0  0  0
  8 13  2  0  0  0  0
 13 14  1  0  0  0  0
  5 14  2  0  0  0  0
  1 15  1  0  0  0  0
  1 16  1  0  0  0  0
  1 17  1  0  0  0  0
  3 18  1  0  0  0  0
  3 19  1  0  0  0  0
  3 20  1  0  0  0  0
  4 21  1  0  0  0  0
  4 22  1  0  0  0  0
  4 23  1  0  0  0  0
  6 24  1  0  0  0  0
  7 25  1  0  0  0  0
 10 26  1  0  0  0  0
 10 27  1  0  0  0  0
 11 28  1  0  0  0  0
 13 29  1  0  0  0  0
 14 30  1  0  0  0  0
M  END
$$$$
