C2H6S2
APtclcactv05262212113D 0   0.00000     0.00000
 
 10  9  0  0  0  0  0  0  0  0999 V2000
   -1.7171    1.1246   -0.2278 C   0  0  0  0  0  0  0  0  0  0  0  0
   -1.1509   -0.5251    0.2707 S   0  0  0  0  0  0  0  0  0  0  0  0
    0.4134   -0.7088   -0.6291 C   0  0  0  0  0  0  0  0  0  0  0  0
    1.6932    0.2970    0.1714 S   0  0  0  0  0  0  0  0  0  0  0  0
   -0.9753    1.8674    0.0655 H   0  0  0  0  0  0  0  0  0  0  0  0
   -1.8503    1.1516   -1.3094 H   0  0  0  0  0  0  0  0  0  0  0  0
   -2.6660    1.3461    0.2607 H   0  0  0  0  0  0  0  0  0  0  0  0
    0.7163   -1.7559   -0.6211 H   0  0  0  0  0  0  0  0  0  0  0  0
    0.2814   -0.3766   -1.6588 H   0  0  0  0  0  0  0  0  0  0  0  0
    2.7785    0.0671   -0.5891 H   0  0  0  0  0  0  0  0  0  0  0  0
  1  2  1  0  0  0  0
  2  3  1  0  0  0  0
  3  4  1  0  0  0  0
  1  5  1  0  0  0  0
  1  6  1  0  0  0  0
  1  7  1  0  0  0  0
  3  8  1  0  0  0  0
  3  9  1  0  0  0  0
  4 10  1  0  0  0  0
M  END
$$$$
