C10H16
APtclcactv05262212113D 0   0.00000     0.00000
 
 26 26  0  0  1  0  0  0  0  0999 V2000
    3.5985    0.0795   -0.0417 C   0  0  0  0  0  0  0  0  0  0  0  0
    2.0922    0.0355   -0.0304 C   0  0  0  0  0  0  0  0  0  0  0  0
    1.4519    1.1603   -0.0533 C   0  0  0  0  0  0  0  0  0  0  0  0
   -0.0442    1.2767   -0.0363 C   0  0  0  0  0  0  0  0  0  0  0  0
   -0.6813   -0.0626   -0.4132 C   0  0  1  0  0  0  0  0  0  0  0  0
   -0.5091   -0.2657   -1.4702 H   0  0  0  0  0  0  0  0  0  0  0  0
   -0.0338   -1.1639    0.4357 C   0  0  0  0  0  0  0  0  0  0  0  0
    1.4277   -1.3097    0.0008 C   0  0  0  0  0  0  0  0  0  0  0  0
   -2.1629   -0.0129   -0.1419 C   0  0  0  0  0  0  0  0  0  0  0  0
   -3.0145   -0.1943   -1.1206 C   0  0  0  0  0  0  0  0  0  0  0  0
   -2.6647    0.2454    1.2555 C   0  0  0  0  0  0  0  0  0  0  0  0
    3.9314    1.1171   -0.0692 H   0  0  0  0  0  0  0  0  0  0  0  0
    3.9828   -0.4017    0.8576 H   0  0  0  0  0  0  0  0  0  0  0  0
    3.9707   -0.4449   -0.9218 H   0  0  0  0  0  0  0  0  0  0  0  0
    2.0304    2.0717   -0.0865 H   0  0  0  0  0  0  0  0  0  0  0  0
   -0.3728    1.5648    0.9623 H   0  0  0  0  0  0  0  0  0  0  0  0
   -0.3555    2.0387   -0.7508 H   0  0  0  0  0  0  0  0  0  0  0  0
   -0.0805   -0.8895    1.4895 H   0  0  0  0  0  0  0  0  0  0  0  0
   -0.5583   -2.1060    0.2756 H   0  0  0  0  0  0  0  0  0  0  0  0
    1.4664   -1.7612   -0.9906 H   0  0  0  0  0  0  0  0  0  0  0  0
    1.9530   -1.9511    0.7084 H   0  0  0  0  0  0  0  0  0  0  0  0
   -4.0762   -0.1587   -0.9261 H   0  0  0  0  0  0  0  0  0  0  0  0
   -2.6548   -0.3794   -2.1220 H   0  0  0  0  0  0  0  0  0  0  0  0
   -1.8167    0.3702    1.9288 H   0  0  0  0  0  0  0  0  0  0  0  0
   -3.2705    1.1515    1.2622 H   0  0  0  0  0  0  0  0  0  0  0  0
   -3.2699   -0.5988    1.5860 H   0  0  0  0  0  0  0  0  0  0  0  0
  1  2  1  0  0  0  0
  2  3  2  0  0  0  0
  3  4  1  0  0  0  0
  4  5  1  0  0  0  0
  5  6  1  0  0  0  0
  5  7  1  0  0  0  0
  7  8  1  0  0  0  0
  2  8  1  0  0  0  0
  5  9  1  0  0  0  0
  9 10  2  0  0  0  0
  9 11  1  0  0  0  0
  1 12  1  0  0  0  0
  1 13  1  0  0  0  0
  1 14  1  0  0  0  0
  3 15  1  0  0  0  0
  4 16  1  0  0  0  0
  4 17  1  0  0  0  0
  7 18  1  0  0  0  0
  7 19  1  0  0  0  0
  8 20  1  0  0  0  0
  8 21  1  0  0  0  0
 10 22  1  0  0  0  0
 10 23  1  0  0  0  0
 11 24  1  0  0  0  0
 11 25  1  0  0  0  0
 11 26  1  0  0  0  0
M  END
$$$$
