C10H20O
APtclcactv05262212103D 0   0.00000     0.00000
 
 31 30  0  0  1  0  0  0  0  0999 V2000
   -1.5818    1.7805   -0.3059 C   0  0  0  0  0  0  0  0  0  0  0  0
   -1.3104    0.3384    0.1272 C   0  0  1  0  0  0  0  0  0  0  0  0
   -1.1964    0.2997    1.2105 H   0  0  0  0  0  0  0  0  0  0  0  0
   -2.4825   -0.5500   -0.2944 C   0  0  0  0  0  0  0  0  0  0  0  0
   -3.7411   -0.1289    0.4668 C   0  0  0  0  0  0  0  0  0  0  0  0
   -4.8359   -0.9586    0.0731 O   0  0  0  0  0  0  0  0  0  0  0  0
   -0.0266   -0.1611   -0.5388 C   0  0  0  0  0  0  0  0  0  0  0  0
    1.1644    0.6480   -0.0213 C   0  0  0  0  0  0  0  0  0  0  0  0
    2.4288    0.1561   -0.6773 C   0  0  0  0  0  0  0  0  0  0  0  0
    3.4496   -0.2082    0.0587 C   0  0  0  0  0  0  0  0  0  0  0  0
    3.4131   -0.0043    1.5514 C   0  0  0  0  0  0  0  0  0  0  0  0
    4.6602   -0.8310   -0.5875 C   0  0  0  0  0  0  0  0  0  0  0  0
   -1.6958    1.8191   -1.3893 H   0  0  0  0  0  0  0  0  0  0  0  0
   -2.4964    2.1363    0.1685 H   0  0  0  0  0  0  0  0  0  0  0  0
   -0.7468    2.4133   -0.0056 H   0  0  0  0  0  0  0  0  0  0  0  0
   -2.6528   -0.4427   -1.3656 H   0  0  0  0  0  0  0  0  0  0  0  0
   -2.2506   -1.5902   -0.0658 H   0  0  0  0  0  0  0  0  0  0  0  0
   -3.5708   -0.2362    1.5381 H   0  0  0  0  0  0  0  0  0  0  0  0
   -3.9730    0.9113    0.2382 H   0  0  0  0  0  0  0  0  0  0  0  0
   -5.6688   -0.7478    0.5169 H   0  0  0  0  0  0  0  0  0  0  0  0
    0.1195   -1.2149   -0.3016 H   0  0  0  0  0  0  0  0  0  0  0  0
   -0.1067   -0.0395   -1.6190 H   0  0  0  0  0  0  0  0  0  0  0  0
    1.0183    1.7018   -0.2585 H   0  0  0  0  0  0  0  0  0  0  0  0
    1.2444    0.5264    1.0589 H   0  0  0  0  0  0  0  0  0  0  0  0
    2.4935    0.1038   -1.7541 H   0  0  0  0  0  0  0  0  0  0  0  0
    2.9071   -0.8478    2.0210 H   0  0  0  0  0  0  0  0  0  0  0  0
    4.4315    0.0669    1.9333 H   0  0  0  0  0  0  0  0  0  0  0  0
    2.8744    0.9153    1.7794 H   0  0  0  0  0  0  0  0  0  0  0  0
    4.5041   -0.8964   -1.6643 H   0  0  0  0  0  0  0  0  0  0  0  0
    5.5372   -0.2164   -0.3841 H   0  0  0  0  0  0  0  0  0  0  0  0
    4.8150   -1.8306   -0.1814 H   0  0  0  0  0  0  0  0  0  0  0  0
  1  2  1  0  0  0  0
  2  3  1  0  0  0  0
  2  4  1  0  0  0  0
  4  5  1  0  0  0  0
  5  6  1  0  0  0  0
  2  7  1  0  0  0  0
  7  8  1  0  0  0  0
  8  9  1  0  0  0  0
  9 10  2  0  0  0  0
 10 11  1  0  0  0  0
 10 12  1  0  0  0  0
  1 13  1  0  0  0  0
  1 14  1  0  0  0  0
  1 15  1  0  0  0  0
  4 16  1  0  0  0  0
  4 17  1  0  0  0  0
  5 18  1  0  0  0  0
  5 19  1  0  0  0  0
  6 20  1  0  0  0  0
  7 21  1  0  0  0  0
  7 22  1  0  0  0  0
  8 23  1  0  0  0  0
  8 24  1  0  0  0  0
  9 25  1  0  0  0  0
 11 26  1  0  0  0  0
 11 27  1  0  0  0  0
 11 28  1  0  0  0  0
 12 29  1  0  0  0  0
 12 30  1  0  0  0  0
 12 31  1  0  0  0  0
M  END
$$$$
