C10H16O
APtclcactv05262212113D 0   0.00000     0.00000
 
 27 27  0  0  1  0  0  0  0  0999 V2000
    3.5660    0.1691    0.4060 C   0  0  0  0  0  0  0  0  0  0  0  0
    2.1640    0.0980   -0.2025 C   0  0  2  0  0  0  0  0  0  0  0  0
    2.2434   -0.0573   -1.2785 H   0  0  0  0  0  0  0  0  0  0  0  0
    1.4251    1.4091    0.0686 C   0  0  0  0  0  0  0  0  0  0  0  0
    0.0816    1.4095   -0.6677 C   0  0  0  0  0  0  0  0  0  0  0  0
   -0.7172    0.2076   -0.2047 C   0  0  0  0  0  0  0  0  0  0  0  0
   -2.0021    0.3125    0.1406 C   0  0  0  0  0  0  0  0  0  0  0  0
   -2.6596    1.6675    0.1944 C   0  0  0  0  0  0  0  0  0  0  0  0
   -2.7955   -0.9239    0.4765 C   0  0  0  0  0  0  0  0  0  0  0  0
   -0.0057   -1.0842   -0.1535 C   0  0  0  0  0  0  0  0  0  0  0  0
   -0.5178   -2.1085   -0.5544 O   0  0  0  0  0  0  0  0  0  0  0  0
    1.3949   -1.0689    0.4252 C   0  0  0  0  0  0  0  0  0  0  0  0
    3.4876    0.3245    1.4820 H   0  0  0  0  0  0  0  0  0  0  0  0
    4.0944   -0.7641    0.2111 H   0  0  0  0  0  0  0  0  0  0  0  0
    4.1148    0.9977   -0.0418 H   0  0  0  0  0  0  0  0  0  0  0  0
    1.2513    1.5123    1.1397 H   0  0  0  0  0  0  0  0  0  0  0  0
    2.0304    2.2453   -0.2814 H   0  0  0  0  0  0  0  0  0  0  0  0
   -0.4639    2.3243   -0.4360 H   0  0  0  0  0  0  0  0  0  0  0  0
    0.2519    1.3452   -1.7424 H   0  0  0  0  0  0  0  0  0  0  0  0
   -2.6884    2.0974   -0.8068 H   0  0  0  0  0  0  0  0  0  0  0  0
   -3.6758    1.5633    0.5745 H   0  0  0  0  0  0  0  0  0  0  0  0
   -2.0900    2.3217    0.8545 H   0  0  0  0  0  0  0  0  0  0  0  0
   -2.7141   -1.1289    1.5440 H   0  0  0  0  0  0  0  0  0  0  0  0
   -3.8419   -0.7661    0.2156 H   0  0  0  0  0  0  0  0  0  0  0  0
   -2.4042   -1.7709   -0.0870 H   0  0  0  0  0  0  0  0  0  0  0  0
    1.8990   -2.0067    0.1916 H   0  0  0  0  0  0  0  0  0  0  0  0
    1.3442   -0.9381    1.5061 H   0  0  0  0  0  0  0  0  0  0  0  0
  1  2  1  0  0  0  0
  2  3  1  0  0  0  0
  2  4  1  0  0  0  0
  4  5  1  0  0  0  0
  5  6  1  0  0  0  0
  6  7  2  0  0  0  0
  7  8  1  0  0  0  0
  7  9  1  0  0  0  0
  6 10  1  0  0  0  0
 10 11  2  0  0  0  0
 10 12  1  0  0  0  0
  2 12  1  0  0  0  0
  1 13  1  0  0  0  0
  1 14  1  0  0  0  0
  1 15  1  0  0  0  0
  4 16  1  0  0  0  0
  4 17  1  0  0  0  0
  5 18  1  0  0  0  0
  5 19  1  0  0  0  0
  8 20  1  0  0  0  0
  8 21  1  0  0  0  0
  8 22  1  0  0  0  0
  9 23  1  0  0  0  0
  9 24  1  0  0  0  0
  9 25  1  0  0  0  0
 12 26  1  0  0  0  0
 12 27  1  0  0  0  0
M  END
$$$$
