C6H12O
APtclcactv05262212242D 0   0.00000     0.00000
 
 19 18  0  0  0  0  0  0  0  0999 V2000
    6.8671    1.3100    0.0000 C   0  0  0  0  0  0  0  0  0  0  0  0
    6.0010    0.8100    0.0000 C   0  0  0  0  0  0  0  0  0  0  0  0
    6.0010   -0.1900    0.0000 C   0  0  0  0  0  0  0  0  0  0  0  0
    5.1350   -0.6900    0.0000 C   0  0  0  0  0  0  0  0  0  0  0  0
    4.2690   -0.1900    0.0000 C   0  0  0  0  0  0  0  0  0  0  0  0
    3.4030   -0.6900    0.0000 C   0  0  0  0  0  0  0  0  0  0  0  0
    2.5369   -0.1900    0.0000 O   0  0  0  0  0  0  0  0  0  0  0  0
    7.1771    0.7731    0.0000 H   0  0  0  0  0  0  0  0  0  0  0  0
    7.4040    1.6200    0.0000 H   0  0  0  0  0  0  0  0  0  0  0  0
    6.5571    1.8469    0.0000 H   0  0  0  0  0  0  0  0  0  0  0  0
    5.7890    1.3926    0.0000 H   0  0  0  0  0  0  0  0  0  0  0  0
    5.3905    0.7023    0.0000 H   0  0  0  0  0  0  0  0  0  0  0  0
    6.5380   -0.5000    0.0000 H   0  0  0  0  0  0  0  0  0  0  0  0
    5.1350   -1.3100    0.0000 H   0  0  0  0  0  0  0  0  0  0  0  0
    4.6675    0.2849    0.0000 H   0  0  0  0  0  0  0  0  0  0  0  0
    3.8705    0.2849    0.0000 H   0  0  0  0  0  0  0  0  0  0  0  0
    3.0044   -1.1649    0.0000 H   0  0  0  0  0  0  0  0  0  0  0  0
    3.8015   -1.1649    0.0000 H   0  0  0  0  0  0  0  0  0  0  0  0
    2.0000   -0.5000    0.0000 H   0  0  0  0  0  0  0  0  0  0  0  0
  1  2  1  0  0  0  0
  2  3  1  0  0  0  0
  3  4  2  0  0  0  0
  4  5  1  0  0  0  0
  5  6  1  0  0  0  0
  6  7  1  0  0  0  0
  1  8  1  0  0  0  0
  1  9  1  0  0  0  0
  1 10  1  0  0  0  0
  2 11  1  0  0  0  0
  2 12  1  0  0  0  0
  3 13  1  0  0  0  0
  4 14  1  0  0  0  0
  5 15  1  0  0  0  0
  5 16  1  0  0  0  0
  6 17  1  0  0  0  0
  6 18  1  0  0  0  0
  7 19  1  0  0  0  0
M  END
$$$$
