C12H26O
APtclcactv05262212103D 0   0.00000     0.00000
 
 39 38  0  0  0  0  0  0  0  0999 V2000
    7.5680    0.3917    0.0000 C   0  0  0  0  0  0  0  0  0  0  0  0
    6.3166   -0.4885   -0.0000 C   0  0  0  0  0  0  0  0  0  0  0  0
    5.0695    0.3979    0.0000 C   0  0  0  0  0  0  0  0  0  0  0  0
    3.8181   -0.4824   -0.0000 C   0  0  0  0  0  0  0  0  0  0  0  0
    2.5710    0.4040    0.0000 C   0  0  0  0  0  0  0  0  0  0  0  0
    1.3196   -0.4762   -0.0000 C   0  0  0  0  0  0  0  0  0  0  0  0
    0.0726    0.4102    0.0000 C   0  0  0  0  0  0  0  0  0  0  0  0
   -1.1788   -0.4701    0.0000 C   0  0  0  0  0  0  0  0  0  0  0  0
   -2.4259    0.4163   -0.0000 C   0  0  0  0  0  0  0  0  0  0  0  0
   -3.6773   -0.4639    0.0000 C   0  0  0  0  0  0  0  0  0  0  0  0
   -4.9244    0.4225   -0.0000 C   0  0  0  0  0  0  0  0  0  0  0  0
   -6.1758   -0.4578    0.0000 C   0  0  0  0  0  0  0  0  0  0  0  0
   -7.3405    0.3701   -0.0000 O   0  0  0  0  0  0  0  0  0  0  0  0
    7.5695    1.0211    0.8900 H   0  0  0  0  0  0  0  0  0  0  0  0
    8.4564   -0.2398   -0.0000 H   0  0  0  0  0  0  0  0  0  0  0  0
    7.5695    1.0211   -0.8900 H   0  0  0  0  0  0  0  0  0  0  0  0
    6.3150   -1.1178   -0.8900 H   0  0  0  0  0  0  0  0  0  0  0  0
    6.3150   -1.1178    0.8900 H   0  0  0  0  0  0  0  0  0  0  0  0
    5.0711    1.0272    0.8900 H   0  0  0  0  0  0  0  0  0  0  0  0
    5.0711    1.0272   -0.8900 H   0  0  0  0  0  0  0  0  0  0  0  0
    3.8166   -1.1117   -0.8900 H   0  0  0  0  0  0  0  0  0  0  0  0
    3.8166   -1.1117    0.8900 H   0  0  0  0  0  0  0  0  0  0  0  0
    2.5726    1.0334    0.8900 H   0  0  0  0  0  0  0  0  0  0  0  0
    2.5726    1.0334   -0.8900 H   0  0  0  0  0  0  0  0  0  0  0  0
    1.3181   -1.1055   -0.8900 H   0  0  0  0  0  0  0  0  0  0  0  0
    1.3181   -1.1055    0.8900 H   0  0  0  0  0  0  0  0  0  0  0  0
    0.0741    1.0395    0.8900 H   0  0  0  0  0  0  0  0  0  0  0  0
    0.0741    1.0395   -0.8900 H   0  0  0  0  0  0  0  0  0  0  0  0
   -1.1804   -1.0994   -0.8900 H   0  0  0  0  0  0  0  0  0  0  0  0
   -1.1804   -1.0994    0.8900 H   0  0  0  0  0  0  0  0  0  0  0  0
   -2.4244    1.0456    0.8900 H   0  0  0  0  0  0  0  0  0  0  0  0
   -2.4244    1.0456   -0.8900 H   0  0  0  0  0  0  0  0  0  0  0  0
   -3.6789   -1.0932   -0.8900 H   0  0  0  0  0  0  0  0  0  0  0  0
   -3.6789   -1.0932    0.8900 H   0  0  0  0  0  0  0  0  0  0  0  0
   -4.9228    1.0518    0.8900 H   0  0  0  0  0  0  0  0  0  0  0  0
   -4.9228    1.0518   -0.8900 H   0  0  0  0  0  0  0  0  0  0  0  0
   -6.1773   -1.0871   -0.8900 H   0  0  0  0  0  0  0  0  0  0  0  0
   -6.1773   -1.0871    0.8900 H   0  0  0  0  0  0  0  0  0  0  0  0
   -8.1729   -0.1220    0.0000 H   0  0  0  0  0  0  0  0  0  0  0  0
  1  2  1  0  0  0  0
  2  3  1  0  0  0  0
  3  4  1  0  0  0  0
  4  5  1  0  0  0  0
  5  6  1  0  0  0  0
  6  7  1  0  0  0  0
  7  8  1  0  0  0  0
  8  9  1  0  0  0  0
  9 10  1  0  0  0  0
 10 11  1  0  0  0  0
 11 12  1  0  0  0  0
 12 13  1  0  0  0  0
  1 14  1  0  0  0  0
  1 15  1  0  0  0  0
  1 16  1  0  0  0  0
  2 17  1  0  0  0  0
  2 18  1  0  0  0  0
  3 19  1  0  0  0  0
  3 20  1  0  0  0  0
  4 21  1  0  0  0  0
  4 22  1  0  0  0  0
  5 23  1  0  0  0  0
  5 24  1  0  0  0  0
  6 25  1  0  0  0  0
  6 26  1  0  0  0  0
  7 27  1  0  0  0  0
  7 28  1  0  0  0  0
  8 29  1  0  0  0  0
  8 30  1  0  0  0  0
  9 31  1  0  0  0  0
  9 32  1  0  0  0  0
 10 33  1  0  0  0  0
 10 34  1  0  0  0  0
 11 35  1  0  0  0  0
 11 36  1  0  0  0  0
 12 37  1  0  0  0  0
 12 38  1  0  0  0  0
 13 39  1  0  0  0  0
M  END
$$$$
