C7H16O
APtclcactv05262212103D 0   0.00000     0.00000
 
 24 23  0  0  0  0  0  0  0  0999 V2000
    4.4451   -0.2953   -0.0000 C   0  0  0  0  0  0  0  0  0  0  0  0
    3.1695    0.5495    0.0000 C   0  0  0  0  0  0  0  0  0  0  0  0
    1.9478   -0.3716   -0.0000 C   0  0  0  0  0  0  0  0  0  0  0  0
    0.6722    0.4732    0.0000 C   0  0  0  0  0  0  0  0  0  0  0  0
   -0.5495   -0.4479    0.0000 C   0  0  0  0  0  0  0  0  0  0  0  0
   -1.8251    0.3969   -0.0000 C   0  0  0  0  0  0  0  0  0  0  0  0
   -3.0468   -0.5241    0.0000 C   0  0  0  0  0  0  0  0  0  0  0  0
   -4.2382    0.2649   -0.0000 O   0  0  0  0  0  0  0  0  0  0  0  0
    5.3155    0.3608    0.0000 H   0  0  0  0  0  0  0  0  0  0  0  0
    4.4643   -0.9244    0.8900 H   0  0  0  0  0  0  0  0  0  0  0  0
    4.4643   -0.9244   -0.8900 H   0  0  0  0  0  0  0  0  0  0  0  0
    3.1503    1.1785    0.8900 H   0  0  0  0  0  0  0  0  0  0  0  0
    3.1503    1.1785   -0.8900 H   0  0  0  0  0  0  0  0  0  0  0  0
    1.9670   -1.0006   -0.8900 H   0  0  0  0  0  0  0  0  0  0  0  0
    1.9670   -1.0006    0.8900 H   0  0  0  0  0  0  0  0  0  0  0  0
    0.6530    1.1022    0.8900 H   0  0  0  0  0  0  0  0  0  0  0  0
    0.6530    1.1022   -0.8900 H   0  0  0  0  0  0  0  0  0  0  0  0
   -0.5303   -1.0769   -0.8900 H   0  0  0  0  0  0  0  0  0  0  0  0
   -0.5303   -1.0769    0.8900 H   0  0  0  0  0  0  0  0  0  0  0  0
   -1.8443    1.0259    0.8900 H   0  0  0  0  0  0  0  0  0  0  0  0
   -1.8443    1.0259   -0.8900 H   0  0  0  0  0  0  0  0  0  0  0  0
   -3.0276   -1.1532   -0.8900 H   0  0  0  0  0  0  0  0  0  0  0  0
   -3.0276   -1.1532    0.8900 H   0  0  0  0  0  0  0  0  0  0  0  0
   -5.0539   -0.2545    0.0000 H   0  0  0  0  0  0  0  0  0  0  0  0
  1  2  1  0  0  0  0
  2  3  1  0  0  0  0
  3  4  1  0  0  0  0
  4  5  1  0  0  0  0
  5  6  1  0  0  0  0
  6  7  1  0  0  0  0
  7  8  1  0  0  0  0
  1  9  1  0  0  0  0
  1 10  1  0  0  0  0
  1 11  1  0  0  0  0
  2 12  1  0  0  0  0
  2 13  1  0  0  0  0
  3 14  1  0  0  0  0
  3 15  1  0  0  0  0
  4 16  1  0  0  0  0
  4 17  1  0  0  0  0
  5 18  1  0  0  0  0
  5 19  1  0  0  0  0
  6 20  1  0  0  0  0
  6 21  1  0  0  0  0
  7 22  1  0  0  0  0
  7 23  1  0  0  0  0
  8 24  1  0  0  0  0
M  END
$$$$
