C6H14O
APtclcactv05262212103D 0   0.00000     0.00000
 
 21 20  0  0  0  0  0  0  0  0999 V2000
    3.8089   -0.3523   -0.0000 C   0  0  0  0  0  0  0  0  0  0  0  0
    2.5523    0.5204    0.0000 C   0  0  0  0  0  0  0  0  0  0  0  0
    1.3106   -0.3735   -0.0000 C   0  0  0  0  0  0  0  0  0  0  0  0
    0.0539    0.4992    0.0000 C   0  0  0  0  0  0  0  0  0  0  0  0
   -1.1878   -0.3947    0.0000 C   0  0  0  0  0  0  0  0  0  0  0  0
   -2.4445    0.4780   -0.0000 C   0  0  0  0  0  0  0  0  0  0  0  0
   -3.6043   -0.3569    0.0000 O   0  0  0  0  0  0  0  0  0  0  0  0
    4.6936    0.2846    0.0000 H   0  0  0  0  0  0  0  0  0  0  0  0
    3.8143   -0.9816    0.8900 H   0  0  0  0  0  0  0  0  0  0  0  0
    3.8143   -0.9816   -0.8900 H   0  0  0  0  0  0  0  0  0  0  0  0
    2.5469    1.1497    0.8900 H   0  0  0  0  0  0  0  0  0  0  0  0
    2.5469    1.1497   -0.8900 H   0  0  0  0  0  0  0  0  0  0  0  0
    1.3159   -1.0028   -0.8900 H   0  0  0  0  0  0  0  0  0  0  0  0
    1.3159   -1.0028    0.8900 H   0  0  0  0  0  0  0  0  0  0  0  0
    0.0485    1.1285    0.8900 H   0  0  0  0  0  0  0  0  0  0  0  0
    0.0485    1.1285   -0.8900 H   0  0  0  0  0  0  0  0  0  0  0  0
   -1.1825   -1.0240   -0.8900 H   0  0  0  0  0  0  0  0  0  0  0  0
   -1.1825   -1.0240    0.8900 H   0  0  0  0  0  0  0  0  0  0  0  0
   -2.4499    1.1073    0.8900 H   0  0  0  0  0  0  0  0  0  0  0  0
   -2.4499    1.1073   -0.8900 H   0  0  0  0  0  0  0  0  0  0  0  0
   -4.4396    0.1303   -0.0000 H   0  0  0  0  0  0  0  0  0  0  0  0
  1  2  1  0  0  0  0
  2  3  1  0  0  0  0
  3  4  1  0  0  0  0
  4  5  1  0  0  0  0
  5  6  1  0  0  0  0
  6  7  1  0  0  0  0
  1  8  1  0  0  0  0
  1  9  1  0  0  0  0
  1 10  1  0  0  0  0
  2 11  1  0  0  0  0
  2 12  1  0  0  0  0
  3 13  1  0  0  0  0
  3 14  1  0  0  0  0
  4 15  1  0  0  0  0
  4 16  1  0  0  0  0
  5 17  1  0  0  0  0
  5 18  1  0  0  0  0
  6 19  1  0  0  0  0
  6 20  1  0  0  0  0
  7 21  1  0  0  0  0
M  END
$$$$
