C8H16O
APtclcactv05262212103D 0   0.00000     0.00000
 
 25 24  0  0  0  0  0  0  0  0999 V2000
    4.5126    0.3821    0.1609 C   0  0  0  0  0  0  0  0  0  0  0  0
    3.2388   -0.2283   -0.4272 C   0  0  0  0  0  0  0  0  0  0  0  0
    2.0164    0.3740    0.2684 C   0  0  0  0  0  0  0  0  0  0  0  0
    0.7427   -0.2364   -0.3197 C   0  0  0  0  0  0  0  0  0  0  0  0
   -0.4797    0.3660    0.3759 C   0  0  0  0  0  0  0  0  0  0  0  0
   -1.7535   -0.2445   -0.2121 C   0  0  0  0  0  0  0  0  0  0  0  0
   -1.7962   -1.6405    0.0902 O   0  0  0  0  0  0  0  0  0  0  0  0
   -2.9585    0.4359    0.3847 C   0  0  0  0  0  0  0  0  0  0  0  0
   -3.8066    1.0648   -0.3906 C   0  0  0  0  0  0  0  0  0  0  0  0
    4.5025    1.4612    0.0078 H   0  0  0  0  0  0  0  0  0  0  0  0
    4.5593    0.1670    1.2284 H   0  0  0  0  0  0  0  0  0  0  0  0
    5.3834   -0.0470   -0.3347 H   0  0  0  0  0  0  0  0  0  0  0  0
    3.1921   -0.0132   -1.4947 H   0  0  0  0  0  0  0  0  0  0  0  0
    3.2489   -1.3075   -0.2741 H   0  0  0  0  0  0  0  0  0  0  0  0
    2.0631    0.1589    1.3359 H   0  0  0  0  0  0  0  0  0  0  0  0
    2.0063    1.4532    0.1153 H   0  0  0  0  0  0  0  0  0  0  0  0
    0.6960   -0.0213   -1.3872 H   0  0  0  0  0  0  0  0  0  0  0  0
    0.7527   -1.3156   -0.1666 H   0  0  0  0  0  0  0  0  0  0  0  0
   -0.4330    0.1508    1.4435 H   0  0  0  0  0  0  0  0  0  0  0  0
   -0.4898    1.4451    0.2228 H   0  0  0  0  0  0  0  0  0  0  0  0
   -1.7568   -0.1066   -1.2934 H   0  0  0  0  0  0  0  0  0  0  0  0
   -1.7958   -1.8381    1.0368 H   0  0  0  0  0  0  0  0  0  0  0  0
   -3.1228    0.4049    1.4517 H   0  0  0  0  0  0  0  0  0  0  0  0
   -4.6701    1.5524    0.0371 H   0  0  0  0  0  0  0  0  0  0  0  0
   -3.6422    1.0958   -1.4576 H   0  0  0  0  0  0  0  0  0  0  0  0
  1  2  1  0  0  0  0
  2  3  1  0  0  0  0
  3  4  1  0  0  0  0
  4  5  1  0  0  0  0
  5  6  1  0  0  0  0
  6  7  1  0  0  0  0
  6  8  1  0  0  0  0
  8  9  2  0  0  0  0
  1 10  1  0  0  0  0
  1 11  1  0  0  0  0
  1 12  1  0  0  0  0
  2 13  1  0  0  0  0
  2 14  1  0  0  0  0
  3 15  1  0  0  0  0
  3 16  1  0  0  0  0
  4 17  1  0  0  0  0
  4 18  1  0  0  0  0
  5 19  1  0  0  0  0
  5 20  1  0  0  0  0
  6 21  1  0  0  0  0
  7 22  1  0  0  0  0
  8 23  1  0  0  0  0
  9 24  1  0  0  0  0
  9 25  1  0  0  0  0
M  END
$$$$
