C8H14O
APtclcactv05262212093D 0   0.00000     0.00000
 
 23 22  0  0  0  0  0  0  0  0999 V2000
    4.5425    0.2268    0.0000 C   0  0  0  0  0  0  0  0  0  0  0  0
    3.2120   -0.5287   -0.0000 C   0  0  0  0  0  0  0  0  0  0  0  0
    2.0563    0.4739    0.0000 C   0  0  0  0  0  0  0  0  0  0  0  0
    0.7258   -0.2815   -0.0000 C   0  0  0  0  0  0  0  0  0  0  0  0
   -0.4300    0.7211   -0.0000 C   0  0  0  0  0  0  0  0  0  0  0  0
   -1.7405   -0.0230   -0.0000 C   0  0  0  0  0  0  0  0  0  0  0  0
   -1.7492   -1.2363   -0.0000 O   0  0  0  0  0  0  0  0  0  0  0  0
   -3.0018    0.7174   -0.0000 C   0  0  0  0  0  0  0  0  0  0  0  0
   -4.1624    0.0584    0.0000 C   0  0  0  0  0  0  0  0  0  0  0  0
    4.6047    0.8530    0.8900 H   0  0  0  0  0  0  0  0  0  0  0  0
    5.3658   -0.4875    0.0000 H   0  0  0  0  0  0  0  0  0  0  0  0
    4.6047    0.8530   -0.8900 H   0  0  0  0  0  0  0  0  0  0  0  0
    3.1497   -1.1549   -0.8900 H   0  0  0  0  0  0  0  0  0  0  0  0
    3.1497   -1.1549    0.8900 H   0  0  0  0  0  0  0  0  0  0  0  0
    2.1185    1.1001    0.8900 H   0  0  0  0  0  0  0  0  0  0  0  0
    2.1185    1.1001   -0.8900 H   0  0  0  0  0  0  0  0  0  0  0  0
    0.6635   -0.9078   -0.8900 H   0  0  0  0  0  0  0  0  0  0  0  0
    0.6635   -0.9078    0.8900 H   0  0  0  0  0  0  0  0  0  0  0  0
   -0.3677    1.3473    0.8900 H   0  0  0  0  0  0  0  0  0  0  0  0
   -0.3677    1.3473   -0.8900 H   0  0  0  0  0  0  0  0  0  0  0  0
   -2.9940    1.7973   -0.0000 H   0  0  0  0  0  0  0  0  0  0  0  0
   -4.1701   -1.0216    0.0000 H   0  0  0  0  0  0  0  0  0  0  0  0
   -5.0938    0.6051    0.0000 H   0  0  0  0  0  0  0  0  0  0  0  0
  1  2  1  0  0  0  0
  2  3  1  0  0  0  0
  3  4  1  0  0  0  0
  4  5  1  0  0  0  0
  5  6  1  0  0  0  0
  6  7  2  0  0  0  0
  6  8  1  0  0  0  0
  8  9  2  0  0  0  0
  1 10  1  0  0  0  0
  1 11  1  0  0  0  0
  1 12  1  0  0  0  0
  2 13  1  0  0  0  0
  2 14  1  0  0  0  0
  3 15  1  0  0  0  0
  3 16  1  0  0  0  0
  4 17  1  0  0  0  0
  4 18  1  0  0  0  0
  5 19  1  0  0  0  0
  5 20  1  0  0  0  0
  8 21  1  0  0  0  0
  9 22  1  0  0  0  0
  9 23  1  0  0  0  0
M  END
$$$$
