C6H11BrO2
APtclcactv05262212103D 0   0.00000     0.00000
 
 20 19  0  0  0  0  0  0  0  0999 V2000
    4.5197   -0.1645   -0.2170 C   0  0  0  0  0  0  0  0  0  0  0  0
    3.2875   -0.8868    0.3317 C   0  0  0  0  0  0  0  0  0  0  0  0
    2.0297   -0.3302   -0.3384 C   0  0  0  0  0  0  0  0  0  0  0  0
    0.7975   -1.0525    0.2103 C   0  0  0  0  0  0  0  0  0  0  0  0
   -0.4603   -0.4959   -0.4598 C   0  0  0  0  0  0  0  0  0  0  0  0
   -1.6609   -1.2890   -0.0117 C   0  0  0  0  0  0  0  0  0  0  0  0
   -1.8014   -1.5644    1.1563 O   0  0  0  0  0  0  0  0  0  0  0  0
   -2.5742   -1.6894   -0.9103 O   0  0  0  0  0  0  0  0  0  0  0  0
   -0.6936    1.3891    0.0474 Br  0  0  0  0  0  0  0  0  0  0  0  0
    4.4385    0.9022   -0.0082 H   0  0  0  0  0  0  0  0  0  0  0  0
    5.4158   -0.5610    0.2604 H   0  0  0  0  0  0  0  0  0  0  0  0
    4.5826   -0.3202   -1.2940 H   0  0  0  0  0  0  0  0  0  0  0  0
    3.3687   -1.9535    0.1229 H   0  0  0  0  0  0  0  0  0  0  0  0
    3.2247   -0.7311    1.4087 H   0  0  0  0  0  0  0  0  0  0  0  0
    1.9485    0.7365   -0.1296 H   0  0  0  0  0  0  0  0  0  0  0  0
    2.0926   -0.4860   -1.4154 H   0  0  0  0  0  0  0  0  0  0  0  0
    0.8787   -2.1192    0.0015 H   0  0  0  0  0  0  0  0  0  0  0  0
    0.7347   -0.8968    1.2872 H   0  0  0  0  0  0  0  0  0  0  0  0
   -0.3587   -0.5710   -1.5425 H   0  0  0  0  0  0  0  0  0  0  0  0
   -3.3270   -2.1955   -0.5753 H   0  0  0  0  0  0  0  0  0  0  0  0
  1  2  1  0  0  0  0
  2  3  1  0  0  0  0
  3  4  1  0  0  0  0
  4  5  1  0  0  0  0
  5  6  1  0  0  0  0
  6  7  2  0  0  0  0
  6  8  1  0  0  0  0
  5  9  1  0  0  0  0
  1 10  1  0  0  0  0
  1 11  1  0  0  0  0
  1 12  1  0  0  0  0
  2 13  1  0  0  0  0
  2 14  1  0  0  0  0
  3 15  1  0  0  0  0
  3 16  1  0  0  0  0
  4 17  1  0  0  0  0
  4 18  1  0  0  0  0
  5 19  1  0  0  0  0
  8 20  1  0  0  0  0
M  END
$$$$
