C4H8O
APtclcactv05262212103D 0   0.00000     0.00000
 
 13 12  0  0  0  0  0  0  0  0999 V2000
    1.9864    0.0028    0.0000 C   0  0  0  0  0  0  0  0  0  0  0  0
    0.7124   -0.8445   -0.0000 C   0  0  0  0  0  0  0  0  0  0  0  0
   -0.4927    0.0604   -0.0000 C   0  0  0  0  0  0  0  0  0  0  0  0
   -1.8789   -0.5308    0.0000 C   0  0  0  0  0  0  0  0  0  0  0  0
   -0.3475    1.2593   -0.0000 O   0  0  0  0  0  0  0  0  0  0  0  0
    2.0044    0.6318    0.8900 H   0  0  0  0  0  0  0  0  0  0  0  0
    2.8580   -0.6518    0.0000 H   0  0  0  0  0  0  0  0  0  0  0  0
    2.0044    0.6318   -0.8900 H   0  0  0  0  0  0  0  0  0  0  0  0
    0.6944   -1.4735   -0.8900 H   0  0  0  0  0  0  0  0  0  0  0  0
    0.6944   -1.4736    0.8900 H   0  0  0  0  0  0  0  0  0  0  0  0
   -2.0115   -1.1459    0.8900 H   0  0  0  0  0  0  0  0  0  0  0  0
   -2.6162    0.2720    0.0000 H   0  0  0  0  0  0  0  0  0  0  0  0
   -2.0115   -1.1459   -0.8900 H   0  0  0  0  0  0  0  0  0  0  0  0
  1  2  1  0  0  0  0
  2  3  1  0  0  0  0
  3  4  1  0  0  0  0
  3  5  2  0  0  0  0
  1  6  1  0  0  0  0
  1  7  1  0  0  0  0
  1  8  1  0  0  0  0
  2  9  1  0  0  0  0
  2 10  1  0  0  0  0
  4 11  1  0  0  0  0
  4 12  1  0  0  0  0
  4 13  1  0  0  0  0
M  END
$$$$
