C10H18O
APtclcactv05262212242D 0   0.00000     0.00000
 
 29 28  0  0  0  0  0  0  0  0999 V2000
   10.6603    0.5600    0.0000 C   0  0  0  0  0  0  0  0  0  0  0  0
    9.7942    0.0600    0.0000 C   0  0  0  0  0  0  0  0  0  0  0  0
    8.9282    0.5600    0.0000 C   0  0  0  0  0  0  0  0  0  0  0  0
    8.0622    0.0600    0.0000 C   0  0  0  0  0  0  0  0  0  0  0  0
    7.1962    0.5600    0.0000 C   0  0  0  0  0  0  0  0  0  0  0  0
    6.3301    0.0600    0.0000 C   0  0  0  0  0  0  0  0  0  0  0  0
    5.4641    0.5600    0.0000 C   0  0  0  0  0  0  0  0  0  0  0  0
    4.5981    0.0600    0.0000 C   0  0  0  0  0  0  0  0  0  0  0  0
    3.7321    0.5600    0.0000 C   0  0  0  0  0  0  0  0  0  0  0  0
    2.8660    0.0600    0.0000 C   0  0  0  0  0  0  0  0  0  0  0  0
    2.0000    0.5600    0.0000 O   0  0  0  0  0  0  0  0  0  0  0  0
   10.9703    0.0231    0.0000 H   0  0  0  0  0  0  0  0  0  0  0  0
   11.1972    0.8700    0.0000 H   0  0  0  0  0  0  0  0  0  0  0  0
   10.3503    1.0969    0.0000 H   0  0  0  0  0  0  0  0  0  0  0  0
    9.3957   -0.4149    0.0000 H   0  0  0  0  0  0  0  0  0  0  0  0
   10.1928   -0.4149    0.0000 H   0  0  0  0  0  0  0  0  0  0  0  0
    9.3267    1.0349    0.0000 H   0  0  0  0  0  0  0  0  0  0  0  0
    8.5297    1.0349    0.0000 H   0  0  0  0  0  0  0  0  0  0  0  0
    7.6636   -0.4149    0.0000 H   0  0  0  0  0  0  0  0  0  0  0  0
    8.4607   -0.4149    0.0000 H   0  0  0  0  0  0  0  0  0  0  0  0
    7.5947    1.0349    0.0000 H   0  0  0  0  0  0  0  0  0  0  0  0
    6.7976    1.0349    0.0000 H   0  0  0  0  0  0  0  0  0  0  0  0
    5.9316   -0.4149    0.0000 H   0  0  0  0  0  0  0  0  0  0  0  0
    6.7287   -0.4149    0.0000 H   0  0  0  0  0  0  0  0  0  0  0  0
    5.8626    1.0349    0.0000 H   0  0  0  0  0  0  0  0  0  0  0  0
    5.0656    1.0349    0.0000 H   0  0  0  0  0  0  0  0  0  0  0  0
    4.5981   -0.5600    0.0000 H   0  0  0  0  0  0  0  0  0  0  0  0
    3.7321    1.1800    0.0000 H   0  0  0  0  0  0  0  0  0  0  0  0
    2.8660   -0.5600    0.0000 H   0  0  0  0  0  0  0  0  0  0  0  0
  1  2  1  0  0  0  0
  2  3  1  0  0  0  0
  3  4  1  0  0  0  0
  4  5  1  0  0  0  0
  5  6  1  0  0  0  0
  6  7  1  0  0  0  0
  7  8  1  0  0  0  0
  8  9  2  3  0  0  0
  9 10  1  0  0  0  0
 10 11  2  0  0  0  0
  1 12  1  0  0  0  0
  1 13  1  0  0  0  0
  1 14  1  0  0  0  0
  2 15  1  0  0  0  0
  2 16  1  0  0  0  0
  3 17  1  0  0  0  0
  3 18  1  0  0  0  0
  4 19  1  0  0  0  0
  4 20  1  0  0  0  0
  5 21  1  0  0  0  0
  5 22  1  0  0  0  0
  6 23  1  0  0  0  0
  6 24  1  0  0  0  0
  7 25  1  0  0  0  0
  7 26  1  0  0  0  0
  8 27  1  0  0  0  0
  9 28  1  0  0  0  0
 10 29  1  0  0  0  0
M  END
$$$$
