C12H22O
APtclcactv05262212113D 0   0.00000     0.00000
 
 35 36  0  0  0  0  0  0  0  0999 V2000
   -2.4781    1.0815    0.9442 C   0  0  0  0  0  0  0  0  0  0  0  0
   -0.9562    1.1207    1.0963 C   0  0  0  0  0  0  0  0  0  0  0  0
   -0.3024    0.5773   -0.1758 C   0  0  0  0  0  0  0  0  0  0  0  0
   -0.6713    1.3737   -1.3035 O   0  0  0  0  0  0  0  0  0  0  0  0
    1.2351    0.5440   -0.0195 C   0  0  0  0  0  0  0  0  0  0  0  0
    1.9013    1.3712   -1.1208 C   0  0  0  0  0  0  0  0  0  0  0  0
    1.6425    1.0670    1.3594 C   0  0  0  0  0  0  0  0  0  0  0  0
    1.6137   -0.9615   -0.1662 C   0  0  0  0  0  0  0  0  0  0  0  0
    1.0707   -1.6291    1.1341 C   0  0  0  0  0  0  0  0  0  0  0  0
   -0.4668   -1.5957    0.9778 C   0  0  0  0  0  0  0  0  0  0  0  0
   -0.7105   -0.9102   -0.4040 C   0  0  0  0  0  0  0  0  0  0  0  0
   -2.0866   -1.1411   -1.0317 C   0  0  0  0  0  0  0  0  0  0  0  0
    0.5358   -1.4317   -1.2056 C   0  0  0  0  0  0  0  0  0  0  0  0
   -2.7554    1.4694   -0.0360 H   0  0  0  0  0  0  0  0  0  0  0  0
   -2.8265    0.0531    1.0399 H   0  0  0  0  0  0  0  0  0  0  0  0
   -2.9367    1.6942    1.7204 H   0  0  0  0  0  0  0  0  0  0  0  0
   -0.6337    2.1490    1.2597 H   0  0  0  0  0  0  0  0  0  0  0  0
   -0.6602    0.5074    1.9474 H   0  0  0  0  0  0  0  0  0  0  0  0
   -0.4192    2.3041   -1.2274 H   0  0  0  0  0  0  0  0  0  0  0  0
    1.5602    2.4045   -1.0557 H   0  0  0  0  0  0  0  0  0  0  0  0
    2.9836    1.3374   -0.9963 H   0  0  0  0  0  0  0  0  0  0  0  0
    1.6346    0.9612   -2.0949 H   0  0  0  0  0  0  0  0  0  0  0  0
    1.0807    0.5380    2.1292 H   0  0  0  0  0  0  0  0  0  0  0  0
    2.7094    0.9019    1.5100 H   0  0  0  0  0  0  0  0  0  0  0  0
    1.4277    2.1339    1.4213 H   0  0  0  0  0  0  0  0  0  0  0  0
    2.6558   -1.1693   -0.4091 H   0  0  0  0  0  0  0  0  0  0  0  0
    1.4228   -2.6579    1.2086 H   0  0  0  0  0  0  0  0  0  0  0  0
    1.3760   -1.0576    2.0106 H   0  0  0  0  0  0  0  0  0  0  0  0
   -0.8706   -2.6082    0.9754 H   0  0  0  0  0  0  0  0  0  0  0  0
   -0.9174   -1.0079    1.7775 H   0  0  0  0  0  0  0  0  0  0  0  0
   -2.8626   -0.8808   -0.3120 H   0  0  0  0  0  0  0  0  0  0  0  0
   -2.1903   -0.5172   -1.9195 H   0  0  0  0  0  0  0  0  0  0  0  0
   -2.1871   -2.1899   -1.3110 H   0  0  0  0  0  0  0  0  0  0  0  0
    0.6454   -0.9263   -2.1651 H   0  0  0  0  0  0  0  0  0  0  0  0
    0.5246   -2.5158   -1.3188 H   0  0  0  0  0  0  0  0  0  0  0  0
  1  2  1  0  0  0  0
  2  3  1  0  0  0  0
  3  4  1  0  0  0  0
  3  5  1  0  0  0  0
  5  6  1  0  0  0  0
  5  7  1  0  0  0  0
  5  8  1  0  0  0  0
  8  9  1  0  0  0  0
  9 10  1  0  0  0  0
 10 11  1  0  0  0  0
  3 11  1  0  0  0  0
 11 12  1  0  0  0  0
 11 13  1  0  0  0  0
  8 13  1  0  0  0  0
  1 14  1  0  0  0  0
  1 15  1  0  0  0  0
  1 16  1  0  0  0  0
  2 17  1  0  0  0  0
  2 18  1  0  0  0  0
  4 19  1  0  0  0  0
  6 20  1  0  0  0  0
  6 21  1  0  0  0  0
  6 22  1  0  0  0  0
  7 23  1  0  0  0  0
  7 24  1  0  0  0  0
  7 25  1  0  0  0  0
  8 26  1  0  0  0  0
  9 27  1  0  0  0  0
  9 28  1  0  0  0  0
 10 29  1  0  0  0  0
 10 30  1  0  0  0  0
 12 31  1  0  0  0  0
 12 32  1  0  0  0  0
 12 33  1  0  0  0  0
 13 34  1  0  0  0  0
 13 35  1  0  0  0  0
M  END
$$$$
