C8H18O
APtclcactv05262212242D 0   0.00000     0.00000
 
 27 26  0  0  0  0  0  0  0  0999 V2000
    7.7331    0.5000    0.0000 C   0  0  0  0  0  0  0  0  0  0  0  0
    6.8671    1.0000    0.0000 C   0  0  0  0  0  0  0  0  0  0  0  0
    6.0010    0.5000    0.0000 C   0  0  0  0  0  0  0  0  0  0  0  0
    5.1350    1.0000    0.0000 C   0  0  0  0  0  0  0  0  0  0  0  0
    4.2690    0.5000    0.0000 C   0  0  0  0  0  0  0  0  0  0  0  0
    4.2690   -0.5000    0.0000 C   0  0  0  0  0  0  0  0  0  0  0  0
    3.4030   -1.0000    0.0000 C   0  0  0  0  0  0  0  0  0  0  0  0
    3.4030    1.0000    0.0000 C   0  0  0  0  0  0  0  0  0  0  0  0
    2.5369    0.5000    0.0000 O   0  0  0  0  0  0  0  0  0  0  0  0
    7.4231   -0.0369    0.0000 H   0  0  0  0  0  0  0  0  0  0  0  0
    8.2700    0.1900    0.0000 H   0  0  0  0  0  0  0  0  0  0  0  0
    8.0431    1.0369    0.0000 H   0  0  0  0  0  0  0  0  0  0  0  0
    7.2656    1.4749    0.0000 H   0  0  0  0  0  0  0  0  0  0  0  0
    6.4685    1.4749    0.0000 H   0  0  0  0  0  0  0  0  0  0  0  0
    5.6025    0.0251    0.0000 H   0  0  0  0  0  0  0  0  0  0  0  0
    6.3996    0.0251    0.0000 H   0  0  0  0  0  0  0  0  0  0  0  0
    5.5335    1.4749    0.0000 H   0  0  0  0  0  0  0  0  0  0  0  0
    4.7365    1.4749    0.0000 H   0  0  0  0  0  0  0  0  0  0  0  0
    4.2690    1.1200    0.0000 H   0  0  0  0  0  0  0  0  0  0  0  0
    4.4810   -1.0826    0.0000 H   0  0  0  0  0  0  0  0  0  0  0  0
    4.8796   -0.3923    0.0000 H   0  0  0  0  0  0  0  0  0  0  0  0
    3.0930   -0.4631    0.0000 H   0  0  0  0  0  0  0  0  0  0  0  0
    2.8660   -1.3100    0.0000 H   0  0  0  0  0  0  0  0  0  0  0  0
    3.7130   -1.5369    0.0000 H   0  0  0  0  0  0  0  0  0  0  0  0
    3.8015    1.4749    0.0000 H   0  0  0  0  0  0  0  0  0  0  0  0
    3.0044    1.4749    0.0000 H   0  0  0  0  0  0  0  0  0  0  0  0
    2.0000    0.8100    0.0000 H   0  0  0  0  0  0  0  0  0  0  0  0
  1  2  1  0  0  0  0
  2  3  1  0  0  0  0
  3  4  1  0  0  0  0
  4  5  1  0  0  0  0
  5  6  1  0  0  0  0
  6  7  1  0  0  0  0
  5  8  1  0  0  0  0
  8  9  1  0  0  0  0
  1 10  1  0  0  0  0
  1 11  1  0  0  0  0
  1 12  1  0  0  0  0
  2 13  1  0  0  0  0
  2 14  1  0  0  0  0
  3 15  1  0  0  0  0
  3 16  1  0  0  0  0
  4 17  1  0  0  0  0
  4 18  1  0  0  0  0
  5 19  1  0  0  0  0
  6 20  1  0  0  0  0
  6 21  1  0  0  0  0
  7 22  1  0  0  0  0
  7 23  1  0  0  0  0
  7 24  1  0  0  0  0
  8 25  1  0  0  0  0
  8 26  1  0  0  0  0
  9 27  1  0  0  0  0
M  END
$$$$
