C12H22O
APtclcactv05262212103D 0   0.00000     0.00000
 
 35 36  0  0  0  0  0  0  0  0999 V2000
    2.9085    0.7008    0.0745 C   0  0  0  0  0  0  0  0  0  0  0  0
    1.5493    1.1211   -0.4884 C   0  0  0  0  0  0  0  0  0  0  0  0
    0.4380    0.3723    0.2499 C   0  0  0  0  0  0  0  0  0  0  0  0
   -0.9479    0.9089   -0.1754 C   0  0  0  0  0  0  0  0  0  0  0  0
   -1.6685   -0.3196   -0.8100 C   0  0  0  0  0  0  0  0  0  0  0  0
   -1.9642   -1.2641    0.3949 C   0  0  0  0  0  0  0  0  0  0  0  0
   -0.5783   -1.8007    0.8201 C   0  0  0  0  0  0  0  0  0  0  0  0
    0.4243   -1.1299   -0.1679 C   0  0  0  0  0  0  0  0  0  0  0  0
   -0.4519   -1.0613   -1.4683 C   0  0  0  0  0  0  0  0  0  0  0  0
    1.7930   -1.8024   -0.2911 C   0  0  0  0  0  0  0  0  0  0  0  0
   -1.7231    1.4102    1.0447 C   0  0  0  0  0  0  0  0  0  0  0  0
   -0.7930    2.0280   -1.2071 C   0  0  0  0  0  0  0  0  0  0  0  0
    0.6083    0.4972    1.6632 O   0  0  0  0  0  0  0  0  0  0  0  0
    3.6795    1.3772   -0.2944 H   0  0  0  0  0  0  0  0  0  0  0  0
    2.8795    0.7423    1.1633 H   0  0  0  0  0  0  0  0  0  0  0  0
    3.1350   -0.3166   -0.2444 H   0  0  0  0  0  0  0  0  0  0  0  0
    1.4162    2.1945   -0.3530 H   0  0  0  0  0  0  0  0  0  0  0  0
    1.5059    0.8807   -1.5506 H   0  0  0  0  0  0  0  0  0  0  0  0
   -2.5159   -0.0931   -1.4571 H   0  0  0  0  0  0  0  0  0  0  0  0
   -2.4226   -0.7062    1.2114 H   0  0  0  0  0  0  0  0  0  0  0  0
   -2.6106   -2.0850    0.0845 H   0  0  0  0  0  0  0  0  0  0  0  0
   -0.3553   -1.5066    1.8457 H   0  0  0  0  0  0  0  0  0  0  0  0
   -0.5434   -2.8854    0.7188 H   0  0  0  0  0  0  0  0  0  0  0  0
   -0.7247   -2.0527   -1.8301 H   0  0  0  0  0  0  0  0  0  0  0  0
    0.0191   -0.4622   -2.2475 H   0  0  0  0  0  0  0  0  0  0  0  0
    1.6598   -2.8765   -0.4203 H   0  0  0  0  0  0  0  0  0  0  0  0
    2.3215   -1.3955   -1.1532 H   0  0  0  0  0  0  0  0  0  0  0  0
    2.3729   -1.6143    0.6125 H   0  0  0  0  0  0  0  0  0  0  0  0
   -1.2697    2.3318    1.4098 H   0  0  0  0  0  0  0  0  0  0  0  0
   -2.7588    1.6013    0.7638 H   0  0  0  0  0  0  0  0  0  0  0  0
   -1.6931    0.6547    1.8299 H   0  0  0  0  0  0  0  0  0  0  0  0
   -0.2768    1.6426   -2.0864 H   0  0  0  0  0  0  0  0  0  0  0  0
   -1.7779    2.3950   -1.4957 H   0  0  0  0  0  0  0  0  0  0  0  0
   -0.2138    2.8436   -0.7742 H   0  0  0  0  0  0  0  0  0  0  0  0
    0.5982    1.4102    1.9815 H   0  0  0  0  0  0  0  0  0  0  0  0
  1  2  1  0  0  0  0
  2  3  1  0  0  0  0
  3  4  1  0  0  0  0
  4  5  1  0  0  0  0
  5  6  1  0  0  0  0
  6  7  1  0  0  0  0
  7  8  1  0  0  0  0
  3  8  1  0  0  0  0
  8  9  1  0  0  0  0
  5  9  1  0  0  0  0
  8 10  1  0  0  0  0
  4 11  1  0  0  0  0
  4 12  1  0  0  0  0
  3 13  1  0  0  0  0
  1 14  1  0  0  0  0
  1 15  1  0  0  0  0
  1 16  1  0  0  0  0
  2 17  1  0  0  0  0
  2 18  1  0  0  0  0
  5 19  1  0  0  0  0
  6 20  1  0  0  0  0
  6 21  1  0  0  0  0
  7 22  1  0  0  0  0
  7 23  1  0  0  0  0
  9 24  1  0  0  0  0
  9 25  1  0  0  0  0
 10 26  1  0  0  0  0
 10 27  1  0  0  0  0
 10 28  1  0  0  0  0
 11 29  1  0  0  0  0
 11 30  1  0  0  0  0
 11 31  1  0  0  0  0
 12 32  1  0  0  0  0
 12 33  1  0  0  0  0
 12 34  1  0  0  0  0
 13 35  1  0  0  0  0
M  END
$$$$
