C8H10O
APtclcactv05262212103D 0   0.00000     0.00000
 
 19 19  0  0  0  0  0  0  0  0999 V2000
   -2.6111   -0.6194   -0.7491 C   0  0  0  0  0  0  0  0  0  0  0  0
   -1.8357   -0.5782    0.5692 C   0  0  0  0  0  0  0  0  0  0  0  0
   -0.3696   -0.3778    0.2836 C   0  0  0  0  0  0  0  0  0  0  0  0
    0.4742   -1.4683    0.2028 C   0  0  0  0  0  0  0  0  0  0  0  0
    1.8196   -1.2851   -0.0592 C   0  0  0  0  0  0  0  0  0  0  0  0
    2.3235   -0.0107   -0.2408 C   0  0  0  0  0  0  0  0  0  0  0  0
    1.4837    1.0835   -0.1605 C   0  0  0  0  0  0  0  0  0  0  0  0
    0.1326    0.9019    0.0960 C   0  0  0  0  0  0  0  0  0  0  0  0
   -0.6955    1.9765    0.1755 O   0  0  0  0  0  0  0  0  0  0  0  0
   -2.2442   -1.4435   -1.3609 H   0  0  0  0  0  0  0  0  0  0  0  0
   -3.6715   -0.7643   -0.5425 H   0  0  0  0  0  0  0  0  0  0  0  0
   -2.4701    0.3203   -1.2831 H   0  0  0  0  0  0  0  0  0  0  0  0
   -2.2027    0.2459    1.1810 H   0  0  0  0  0  0  0  0  0  0  0  0
   -1.9767   -1.5179    1.1032 H   0  0  0  0  0  0  0  0  0  0  0  0
    0.0829   -2.4649    0.3447 H   0  0  0  0  0  0  0  0  0  0  0  0
    2.4778   -2.1391   -0.1216 H   0  0  0  0  0  0  0  0  0  0  0  0
    3.3746    0.1298   -0.4453 H   0  0  0  0  0  0  0  0  0  0  0  0
    1.8779    2.0789   -0.3021 H   0  0  0  0  0  0  0  0  0  0  0  0
   -1.0923    2.2306   -0.6690 H   0  0  0  0  0  0  0  0  0  0  0  0
  1  2  1  0  0  0  0
  2  3  1  0  0  0  0
  3  4  2  0  0  0  0
  4  5  1  0  0  0  0
  5  6  2  0  0  0  0
  6  7  1  0  0  0  0
  7  8  2  0  0  0  0
  3  8  1  0  0  0  0
  8  9  1  0  0  0  0
  1 10  1  0  0  0  0
  1 11  1  0  0  0  0
  1 12  1  0  0  0  0
  2 13  1  0  0  0  0
  2 14  1  0  0  0  0
  4 15  1  0  0  0  0
  5 16  1  0  0  0  0
  6 17  1  0  0  0  0
  7 18  1  0  0  0  0
  9 19  1  0  0  0  0
M  END
$$$$
