C7H14O
APtclcactv05262212103D 0   0.00000     0.00000
 
 22 21  0  0  0  0  0  0  0  0999 V2000
    4.0882   -0.2374   -0.0000 C   0  0  0  0  0  0  0  0  0  0  0  0
    2.7614    0.5245    0.0000 C   0  0  0  0  0  0  0  0  0  0  0  0
    1.6008   -0.4724   -0.0000 C   0  0  0  0  0  0  0  0  0  0  0  0
    0.2740    0.2895    0.0000 C   0  0  0  0  0  0  0  0  0  0  0  0
   -0.8866   -0.7075    0.0000 C   0  0  0  0  0  0  0  0  0  0  0  0
   -2.1935    0.0430   -0.0000 C   0  0  0  0  0  0  0  0  0  0  0  0
   -3.4968   -0.7136    0.0000 C   0  0  0  0  0  0  0  0  0  0  0  0
   -2.1963    1.2506   -0.0000 O   0  0  0  0  0  0  0  0  0  0  0  0
    4.9150    0.4729    0.0000 H   0  0  0  0  0  0  0  0  0  0  0  0
    4.1474   -0.8639    0.8900 H   0  0  0  0  0  0  0  0  0  0  0  0
    4.1474   -0.8639   -0.8900 H   0  0  0  0  0  0  0  0  0  0  0  0
    2.7022    1.1511    0.8900 H   0  0  0  0  0  0  0  0  0  0  0  0
    2.7022    1.1511   -0.8900 H   0  0  0  0  0  0  0  0  0  0  0  0
    1.6600   -1.0989   -0.8900 H   0  0  0  0  0  0  0  0  0  0  0  0
    1.6600   -1.0989    0.8900 H   0  0  0  0  0  0  0  0  0  0  0  0
    0.2148    0.9160    0.8900 H   0  0  0  0  0  0  0  0  0  0  0  0
    0.2148    0.9160   -0.8900 H   0  0  0  0  0  0  0  0  0  0  0  0
   -0.8274   -1.3340   -0.8900 H   0  0  0  0  0  0  0  0  0  0  0  0
   -0.8274   -1.3340    0.8900 H   0  0  0  0  0  0  0  0  0  0  0  0
   -3.2951   -1.7847    0.0000 H   0  0  0  0  0  0  0  0  0  0  0  0
   -4.0690   -0.4516    0.8900 H   0  0  0  0  0  0  0  0  0  0  0  0
   -4.0690   -0.4516   -0.8900 H   0  0  0  0  0  0  0  0  0  0  0  0
  1  2  1  0  0  0  0
  2  3  1  0  0  0  0
  3  4  1  0  0  0  0
  4  5  1  0  0  0  0
  5  6  1  0  0  0  0
  6  7  1  0  0  0  0
  6  8  2  0  0  0  0
  1  9  1  0  0  0  0
  1 10  1  0  0  0  0
  1 11  1  0  0  0  0
  2 12  1  0  0  0  0
  2 13  1  0  0  0  0
  3 14  1  0  0  0  0
  3 15  1  0  0  0  0
  4 16  1  0  0  0  0
  4 17  1  0  0  0  0
  5 18  1  0  0  0  0
  5 19  1  0  0  0  0
  7 20  1  0  0  0  0
  7 21  1  0  0  0  0
  7 22  1  0  0  0  0
M  END
$$$$
