C6H12O
APtclcactv05262212103D 0   0.00000     0.00000
 
 19 18  0  0  0  0  0  0  0  0999 V2000
    3.3662   -0.3266   -0.0000 C   0  0  0  0  0  0  0  0  0  0  0  0
    2.1603    0.6150    0.0000 C   0  0  0  0  0  0  0  0  0  0  0  0
    0.8705   -0.2081   -0.0000 C   0  0  0  0  0  0  0  0  0  0  0  0
   -0.3354    0.7335    0.0000 C   0  0  0  0  0  0  0  0  0  0  0  0
   -1.6057   -0.0773   -0.0000 C   0  0  0  0  0  0  0  0  0  0  0  0
   -1.5521   -1.2837   -0.0000 O   0  0  0  0  0  0  0  0  0  0  0  0
   -2.9430    0.6175    0.0000 C   0  0  0  0  0  0  0  0  0  0  0  0
    3.3364   -0.9552    0.8900 H   0  0  0  0  0  0  0  0  0  0  0  0
    3.3364   -0.9552   -0.8900 H   0  0  0  0  0  0  0  0  0  0  0  0
    4.2850    0.2599    0.0000 H   0  0  0  0  0  0  0  0  0  0  0  0
    2.1901    1.2436    0.8900 H   0  0  0  0  0  0  0  0  0  0  0  0
    2.1901    1.2436   -0.8900 H   0  0  0  0  0  0  0  0  0  0  0  0
    0.8407   -0.8367   -0.8900 H   0  0  0  0  0  0  0  0  0  0  0  0
    0.8407   -0.8367    0.8900 H   0  0  0  0  0  0  0  0  0  0  0  0
   -0.3056    1.3621    0.8900 H   0  0  0  0  0  0  0  0  0  0  0  0
   -0.3056    1.3621   -0.8900 H   0  0  0  0  0  0  0  0  0  0  0  0
   -2.7917    1.6969    0.0000 H   0  0  0  0  0  0  0  0  0  0  0  0
   -3.5023    0.3290   -0.8900 H   0  0  0  0  0  0  0  0  0  0  0  0
   -3.5023    0.3290    0.8900 H   0  0  0  0  0  0  0  0  0  0  0  0
  1  2  1  0  0  0  0
  2  3  1  0  0  0  0
  3  4  1  0  0  0  0
  4  5  1  0  0  0  0
  5  6  2  0  0  0  0
  5  7  1  0  0  0  0
  1  8  1  0  0  0  0
  1  9  1  0  0  0  0
  1 10  1  0  0  0  0
  2 11  1  0  0  0  0
  2 12  1  0  0  0  0
  3 13  1  0  0  0  0
  3 14  1  0  0  0  0
  4 15  1  0  0  0  0
  4 16  1  0  0  0  0
  7 17  1  0  0  0  0
  7 18  1  0  0  0  0
  7 19  1  0  0  0  0
M  END
$$$$
