C8H10O2
APtclcactv05262212103D 0   0.00000     0.00000
 
 20 20  0  0  0  0  0  0  0  0999 V2000
    1.9222    2.2317   -0.0006 C   0  0  0  0  0  0  0  0  0  0  0  0
    1.9069    0.8028    0.0109 O   0  0  0  0  0  0  0  0  0  0  0  0
    0.6886    0.1984    0.0096 C   0  0  0  0  0  0  0  0  0  0  0  0
   -0.4663    0.9639   -0.0024 C   0  0  0  0  0  0  0  0  0  0  0  0
   -1.7039    0.3479   -0.0037 C   0  0  0  0  0  0  0  0  0  0  0  0
   -2.9589    1.1820   -0.0173 C   0  0  0  0  0  0  0  0  0  0  0  0
   -1.7927   -1.0317    0.0070 C   0  0  0  0  0  0  0  0  0  0  0  0
   -0.6444   -1.8013    0.0190 C   0  0  0  0  0  0  0  0  0  0  0  0
    0.5992   -1.1903    0.0145 C   0  0  0  0  0  0  0  0  0  0  0  0
    1.7299   -1.9459    0.0263 O   0  0  0  0  0  0  0  0  0  0  0  0
    2.9536    2.5841    0.0018 H   0  0  0  0  0  0  0  0  0  0  0  0
    1.4167    2.5933   -0.8961 H   0  0  0  0  0  0  0  0  0  0  0  0
    1.4077    2.6077    0.8838 H   0  0  0  0  0  0  0  0  0  0  0  0
   -0.3996    2.0418   -0.0105 H   0  0  0  0  0  0  0  0  0  0  0  0
   -3.2561    1.3745   -1.0481 H   0  0  0  0  0  0  0  0  0  0  0  0
   -3.7568    0.6463    0.4970 H   0  0  0  0  0  0  0  0  0  0  0  0
   -2.7715    2.1286    0.4896 H   0  0  0  0  0  0  0  0  0  0  0  0
   -2.7614   -1.5093    0.0064 H   0  0  0  0  0  0  0  0  0  0  0  0
   -0.7166   -2.8789    0.0274 H   0  0  0  0  0  0  0  0  0  0  0  0
    2.0589   -2.1751   -0.8536 H   0  0  0  0  0  0  0  0  0  0  0  0
  1  2  1  0  0  0  0
  2  3  1  0  0  0  0
  3  4  1  0  0  0  0
  4  5  2  0  0  0  0
  5  6  1  0  0  0  0
  5  7  1  0  0  0  0
  7  8  2  0  0  0  0
  8  9  1  0  0  0  0
  3  9  2  0  0  0  0
  9 10  1  0  0  0  0
  1 11  1  0  0  0  0
  1 12  1  0  0  0  0
  1 13  1  0  0  0  0
  4 14  1  0  0  0  0
  6 15  1  0  0  0  0
  6 16  1  0  0  0  0
  6 17  1  0  0  0  0
  7 18  1  0  0  0  0
  8 19  1  0  0  0  0
 10 20  1  0  0  0  0
M  END
$$$$
