C9H20O
APtclcactv05262212103D 0   0.00000     0.00000
 
 30 29  0  0  0  0  0  0  0  0999 V2000
    5.4378   -0.2022    0.2180 C   0  0  0  0  0  0  0  0  0  0  0  0
    4.1522    0.4885   -0.2414 C   0  0  0  0  0  0  0  0  0  0  0  0
    2.9437   -0.3466    0.1864 C   0  0  0  0  0  0  0  0  0  0  0  0
    1.6581    0.3441   -0.2729 C   0  0  0  0  0  0  0  0  0  0  0  0
    0.4496   -0.4910    0.1549 C   0  0  0  0  0  0  0  0  0  0  0  0
   -0.8360    0.1997   -0.3045 C   0  0  0  0  0  0  0  0  0  0  0  0
   -2.0445   -0.6354    0.1233 C   0  0  0  0  0  0  0  0  0  0  0  0
   -3.3301    0.0553   -0.3360 C   0  0  0  0  0  0  0  0  0  0  0  0
   -4.5306   -0.8387   -0.0191 C   0  0  0  0  0  0  0  0  0  0  0  0
   -3.4712    1.3023    0.3474 O   0  0  0  0  0  0  0  0  0  0  0  0
    6.2988    0.3928   -0.0868 H   0  0  0  0  0  0  0  0  0  0  0  0
    5.4298   -0.3000    1.3035 H   0  0  0  0  0  0  0  0  0  0  0  0
    5.5009   -1.1913   -0.2355 H   0  0  0  0  0  0  0  0  0  0  0  0
    4.0892    1.4777    0.2121 H   0  0  0  0  0  0  0  0  0  0  0  0
    4.1603    0.5864   -1.3270 H   0  0  0  0  0  0  0  0  0  0  0  0
    3.0067   -1.3357   -0.2671 H   0  0  0  0  0  0  0  0  0  0  0  0
    2.9357   -0.4444    1.2720 H   0  0  0  0  0  0  0  0  0  0  0  0
    1.5951    1.3333    0.1806 H   0  0  0  0  0  0  0  0  0  0  0  0
    1.6662    0.4420   -1.3585 H   0  0  0  0  0  0  0  0  0  0  0  0
    0.5126   -1.4802   -0.2986 H   0  0  0  0  0  0  0  0  0  0  0  0
    0.4416   -0.5888    1.2404 H   0  0  0  0  0  0  0  0  0  0  0  0
   -0.8990    1.1889    0.1490 H   0  0  0  0  0  0  0  0  0  0  0  0
   -0.8279    0.2976   -1.3901 H   0  0  0  0  0  0  0  0  0  0  0  0
   -1.9815   -1.6246   -0.3302 H   0  0  0  0  0  0  0  0  0  0  0  0
   -2.0525   -0.7333    1.2089 H   0  0  0  0  0  0  0  0  0  0  0  0
   -3.2831    0.2331   -1.4104 H   0  0  0  0  0  0  0  0  0  0  0  0
   -4.5776   -1.0165    1.0552 H   0  0  0  0  0  0  0  0  0  0  0  0
   -5.4465   -0.3466   -0.3464 H   0  0  0  0  0  0  0  0  0  0  0  0
   -4.4229   -1.7899   -0.5405 H   0  0  0  0  0  0  0  0  0  0  0  0
   -3.5197    1.2201    1.3097 H   0  0  0  0  0  0  0  0  0  0  0  0
  1  2  1  0  0  0  0
  2  3  1  0  0  0  0
  3  4  1  0  0  0  0
  4  5  1  0  0  0  0
  5  6  1  0  0  0  0
  6  7  1  0  0  0  0
  7  8  1  0  0  0  0
  8  9  1  0  0  0  0
  8 10  1  0  0  0  0
  1 11  1  0  0  0  0
  1 12  1  0  0  0  0
  1 13  1  0  0  0  0
  2 14  1  0  0  0  0
  2 15  1  0  0  0  0
  3 16  1  0  0  0  0
  3 17  1  0  0  0  0
  4 18  1  0  0  0  0
  4 19  1  0  0  0  0
  5 20  1  0  0  0  0
  5 21  1  0  0  0  0
  6 22  1  0  0  0  0
  6 23  1  0  0  0  0
  7 24  1  0  0  0  0
  7 25  1  0  0  0  0
  8 26  1  0  0  0  0
  9 27  1  0  0  0  0
  9 28  1  0  0  0  0
  9 29  1  0  0  0  0
 10 30  1  0  0  0  0
M  END
$$$$
