C8H18O
APtclcactv05262212103D 0   0.00000     0.00000
 
 27 26  0  0  0  0  0  0  0  0999 V2000
    4.7635   -0.3763    0.1263 C   0  0  0  0  0  0  0  0  0  0  0  0
    3.5341    0.4404   -0.2770 C   0  0  0  0  0  0  0  0  0  0  0  0
    2.2681   -0.2750    0.1986 C   0  0  0  0  0  0  0  0  0  0  0  0
    1.0388    0.5417   -0.2048 C   0  0  0  0  0  0  0  0  0  0  0  0
   -0.2273   -0.1737    0.2708 C   0  0  0  0  0  0  0  0  0  0  0  0
   -1.4566    0.6430   -0.1325 C   0  0  0  0  0  0  0  0  0  0  0  0
   -2.7227   -0.0724    0.3431 C   0  0  0  0  0  0  0  0  0  0  0  0
   -3.9432    0.8027    0.0509 C   0  0  0  0  0  0  0  0  0  0  0  0
   -2.8534   -1.3176   -0.3457 O   0  0  0  0  0  0  0  0  0  0  0  0
    4.7906   -0.4804    1.2110 H   0  0  0  0  0  0  0  0  0  0  0  0
    4.7101   -1.3638   -0.3322 H   0  0  0  0  0  0  0  0  0  0  0  0
    5.6654    0.1333   -0.2125 H   0  0  0  0  0  0  0  0  0  0  0  0
    3.5875    1.4278    0.1815 H   0  0  0  0  0  0  0  0  0  0  0  0
    3.5070    0.5444   -1.3617 H   0  0  0  0  0  0  0  0  0  0  0  0
    2.2147   -1.2625   -0.2600 H   0  0  0  0  0  0  0  0  0  0  0  0
    2.2953   -0.3791    1.2832 H   0  0  0  0  0  0  0  0  0  0  0  0
    1.0921    1.5291    0.2537 H   0  0  0  0  0  0  0  0  0  0  0  0
    1.0116    0.6457   -1.2895 H   0  0  0  0  0  0  0  0  0  0  0  0
   -0.2807   -1.1611   -0.1877 H   0  0  0  0  0  0  0  0  0  0  0  0
   -0.2001   -0.2778    1.3555 H   0  0  0  0  0  0  0  0  0  0  0  0
   -1.4033    1.6304    0.3260 H   0  0  0  0  0  0  0  0  0  0  0  0
   -1.4838    0.7470   -1.2172 H   0  0  0  0  0  0  0  0  0  0  0  0
   -2.6554   -0.2557    1.4154 H   0  0  0  0  0  0  0  0  0  0  0  0
   -4.0106    0.9859   -1.0215 H   0  0  0  0  0  0  0  0  0  0  0  0
   -4.8452    0.2930    0.3897 H   0  0  0  0  0  0  0  0  0  0  0  0
   -3.8435    1.7525    0.5762 H   0  0  0  0  0  0  0  0  0  0  0  0
   -3.6362   -1.8263   -0.0935 H   0  0  0  0  0  0  0  0  0  0  0  0
  1  2  1  0  0  0  0
  2  3  1  0  0  0  0
  3  4  1  0  0  0  0
  4  5  1  0  0  0  0
  5  6  1  0  0  0  0
  6  7  1  0  0  0  0
  7  8  1  0  0  0  0
  7  9  1  0  0  0  0
  1 10  1  0  0  0  0
  1 11  1  0  0  0  0
  1 12  1  0  0  0  0
  2 13  1  0  0  0  0
  2 14  1  0  0  0  0
  3 15  1  0  0  0  0
  3 16  1  0  0  0  0
  4 17  1  0  0  0  0
  4 18  1  0  0  0  0
  5 19  1  0  0  0  0
  5 20  1  0  0  0  0
  6 21  1  0  0  0  0
  6 22  1  0  0  0  0
  7 23  1  0  0  0  0
  8 24  1  0  0  0  0
  8 25  1  0  0  0  0
  8 26  1  0  0  0  0
  9 27  1  0  0  0  0
M  END
$$$$
