C8H16O
APtclcactv05262212103D 0   0.00000     0.00000
 
 25 24  0  0  0  0  0  0  0  0999 V2000
    4.6943   -0.4205   -0.0000 C   0  0  0  0  0  0  0  0  0  0  0  0
    3.4825    0.5135    0.0000 C   0  0  0  0  0  0  0  0  0  0  0  0
    2.1980   -0.3176   -0.0000 C   0  0  0  0  0  0  0  0  0  0  0  0
    0.9862    0.6165    0.0000 C   0  0  0  0  0  0  0  0  0  0  0  0
   -0.2984   -0.2147   -0.0000 C   0  0  0  0  0  0  0  0  0  0  0  0
   -1.5102    0.7194   -0.0000 C   0  0  0  0  0  0  0  0  0  0  0  0
   -2.7755   -0.0992    0.0000 C   0  0  0  0  0  0  0  0  0  0  0  0
   -4.1170    0.5872   -0.0000 C   0  0  0  0  0  0  0  0  0  0  0  0
   -2.7143   -1.3053    0.0000 O   0  0  0  0  0  0  0  0  0  0  0  0
    5.6095    0.1716    0.0000 H   0  0  0  0  0  0  0  0  0  0  0  0
    4.6684   -1.0493    0.8900 H   0  0  0  0  0  0  0  0  0  0  0  0
    4.6684   -1.0493   -0.8900 H   0  0  0  0  0  0  0  0  0  0  0  0
    3.5084    1.1423    0.8900 H   0  0  0  0  0  0  0  0  0  0  0  0
    3.5084    1.1423   -0.8900 H   0  0  0  0  0  0  0  0  0  0  0  0
    2.1720   -0.9464   -0.8900 H   0  0  0  0  0  0  0  0  0  0  0  0
    2.1720   -0.9464    0.8900 H   0  0  0  0  0  0  0  0  0  0  0  0
    1.0121    1.2452    0.8900 H   0  0  0  0  0  0  0  0  0  0  0  0
    1.0121    1.2452   -0.8900 H   0  0  0  0  0  0  0  0  0  0  0  0
   -0.3243   -0.8434   -0.8900 H   0  0  0  0  0  0  0  0  0  0  0  0
   -0.3243   -0.8434    0.8900 H   0  0  0  0  0  0  0  0  0  0  0  0
   -1.4843    1.3482    0.8900 H   0  0  0  0  0  0  0  0  0  0  0  0
   -1.4843    1.3482   -0.8900 H   0  0  0  0  0  0  0  0  0  0  0  0
   -3.9724    1.6675   -0.0000 H   0  0  0  0  0  0  0  0  0  0  0  0
   -4.6745    0.2952   -0.8900 H   0  0  0  0  0  0  0  0  0  0  0  0
   -4.6745    0.2952    0.8900 H   0  0  0  0  0  0  0  0  0  0  0  0
  1  2  1  0  0  0  0
  2  3  1  0  0  0  0
  3  4  1  0  0  0  0
  4  5  1  0  0  0  0
  5  6  1  0  0  0  0
  6  7  1  0  0  0  0
  7  8  1  0  0  0  0
  7  9  2  0  0  0  0
  1 10  1  0  0  0  0
  1 11  1  0  0  0  0
  1 12  1  0  0  0  0
  2 13  1  0  0  0  0
  2 14  1  0  0  0  0
  3 15  1  0  0  0  0
  3 16  1  0  0  0  0
  4 17  1  0  0  0  0
  4 18  1  0  0  0  0
  5 19  1  0  0  0  0
  5 20  1  0  0  0  0
  6 21  1  0  0  0  0
  6 22  1  0  0  0  0
  8 23  1  0  0  0  0
  8 24  1  0  0  0  0
  8 25  1  0  0  0  0
M  END
$$$$
