C9H14N2O
APtclcactv05262212113D 0   0.00000     0.00000
 
 26 26  0  0  0  0  0  0  0  0999 V2000
    3.6820    0.6157    0.7447 C   0  0  0  0  0  0  0  0  0  0  0  0
    2.3490   -0.1241    0.8743 C   0  0  0  0  0  0  0  0  0  0  0  0
    1.4394    0.2550   -0.2961 C   0  0  0  0  0  0  0  0  0  0  0  0
    2.0552   -0.2465   -1.6038 C   0  0  0  0  0  0  0  0  0  0  0  0
    0.0845   -0.3763   -0.1042 C   0  0  0  0  0  0  0  0  0  0  0  0
   -0.0277   -1.6889   -0.0261 N   0  0  0  0  0  0  0  0  0  0  0  0
   -1.2164   -2.2433    0.1422 C   0  0  0  0  0  0  0  0  0  0  0  0
   -2.3446   -1.4510    0.2368 C   0  0  0  0  0  0  0  0  0  0  0  0
   -2.2390   -0.1352    0.1588 N   0  0  0  0  0  0  0  0  0  0  0  0
   -1.0488    0.4241   -0.0036 C   0  0  0  0  0  0  0  0  0  0  0  0
   -0.9372    1.7739   -0.0839 O   0  0  0  0  0  0  0  0  0  0  0  0
   -2.1447    2.5318    0.0144 C   0  0  0  0  0  0  0  0  0  0  0  0
    3.5035    1.6909    0.7568 H   0  0  0  0  0  0  0  0  0  0  0  0
    4.3300    0.3456    1.5785 H   0  0  0  0  0  0  0  0  0  0  0  0
    4.1621    0.3376   -0.1935 H   0  0  0  0  0  0  0  0  0  0  0  0
    2.5276   -1.1993    0.8622 H   0  0  0  0  0  0  0  0  0  0  0  0
    1.8689    0.1539    1.8125 H   0  0  0  0  0  0  0  0  0  0  0  0
    1.3327    1.3390   -0.3369 H   0  0  0  0  0  0  0  0  0  0  0  0
    3.0352    0.2101   -1.7426 H   0  0  0  0  0  0  0  0  0  0  0  0
    2.1619   -1.3305   -1.5629 H   0  0  0  0  0  0  0  0  0  0  0  0
    1.4072    0.0236   -2.4376 H   0  0  0  0  0  0  0  0  0  0  0  0
   -1.3057   -3.3178    0.2054 H   0  0  0  0  0  0  0  0  0  0  0  0
   -3.3139   -1.9071    0.3742 H   0  0  0  0  0  0  0  0  0  0  0  0
   -2.6207    2.3339    0.9748 H   0  0  0  0  0  0  0  0  0  0  0  0
   -1.9143    3.5942   -0.0649 H   0  0  0  0  0  0  0  0  0  0  0  0
   -2.8201    2.2453   -0.7918 H   0  0  0  0  0  0  0  0  0  0  0  0
  1  2  1  0  0  0  0
  2  3  1  0  0  0  0
  3  4  1  0  0  0  0
  3  5  1  0  0  0  0
  5  6  2  0  0  0  0
  6  7  1  0  0  0  0
  7  8  2  0  0  0  0
  8  9  1  0  0  0  0
  9 10  2  0  0  0  0
  5 10  1  0  0  0  0
 10 11  1  0  0  0  0
 11 12  1  0  0  0  0
  1 13  1  0  0  0  0
  1 14  1  0  0  0  0
  1 15  1  0  0  0  0
  2 16  1  0  0  0  0
  2 17  1  0  0  0  0
  3 18  1  0  0  0  0
  4 19  1  0  0  0  0
  4 20  1  0  0  0  0
  4 21  1  0  0  0  0
  7 22  1  0  0  0  0
  8 23  1  0  0  0  0
 12 24  1  0  0  0  0
 12 25  1  0  0  0  0
 12 26  1  0  0  0  0
M  END
$$$$
