C6H10O2
APtclcactv05262212103D 0   0.00000     0.00000
 
 18 17  0  0  0  0  0  0  0  0999 V2000
    3.4655   -0.4419   -0.0000 C   0  0  0  0  0  0  0  0  0  0  0  0
    2.1941    0.4093    0.0000 C   0  0  0  0  0  0  0  0  0  0  0  0
    0.9678   -0.5057    0.0000 C   0  0  0  0  0  0  0  0  0  0  0  0
   -0.2845    0.3327    0.0000 C   0  0  0  0  0  0  0  0  0  0  0  0
   -0.2044    1.5379   -0.0000 O   0  0  0  0  0  0  0  0  0  0  0  0
   -1.6182   -0.3236    0.0000 C   0  0  0  0  0  0  0  0  0  0  0  0
   -1.6983   -1.5288    0.0000 O   0  0  0  0  0  0  0  0  0  0  0  0
   -2.8705    0.5148   -0.0000 C   0  0  0  0  0  0  0  0  0  0  0  0
    3.4815   -1.0710    0.8900 H   0  0  0  0  0  0  0  0  0  0  0  0
    3.4815   -1.0710   -0.8900 H   0  0  0  0  0  0  0  0  0  0  0  0
    4.3391    0.2099   -0.0000 H   0  0  0  0  0  0  0  0  0  0  0  0
    2.1780    1.0384    0.8900 H   0  0  0  0  0  0  0  0  0  0  0  0
    2.1780    1.0384   -0.8900 H   0  0  0  0  0  0  0  0  0  0  0  0
    0.9839   -1.1348   -0.8900 H   0  0  0  0  0  0  0  0  0  0  0  0
    0.9839   -1.1348    0.8900 H   0  0  0  0  0  0  0  0  0  0  0  0
   -2.8865    1.1439   -0.8900 H   0  0  0  0  0  0  0  0  0  0  0  0
   -3.7441   -0.1370   -0.0000 H   0  0  0  0  0  0  0  0  0  0  0  0
   -2.8865    1.1439    0.8900 H   0  0  0  0  0  0  0  0  0  0  0  0
  1  2  1  0  0  0  0
  2  3  1  0  0  0  0
  3  4  1  0  0  0  0
  4  5  2  0  0  0  0
  4  6  1  0  0  0  0
  6  7  2  0  0  0  0
  6  8  1  0  0  0  0
  1  9  1  0  0  0  0
  1 10  1  0  0  0  0
  1 11  1  0  0  0  0
  2 12  1  0  0  0  0
  2 13  1  0  0  0  0
  3 14  1  0  0  0  0
  3 15  1  0  0  0  0
  8 16  1  0  0  0  0
  8 17  1  0  0  0  0
  8 18  1  0  0  0  0
M  END
$$$$
