C7H14O
APtclcactv05262212103D 0   0.00000     0.00000
 
 22 21  0  0  0  0  0  0  0  0999 V2000
    3.8610   -0.4215   -0.0000 C   0  0  0  0  0  0  0  0  0  0  0  0
    2.6941    0.5681    0.0000 C   0  0  0  0  0  0  0  0  0  0  0  0
    1.3721   -0.2021   -0.0000 C   0  0  0  0  0  0  0  0  0  0  0  0
    0.2053    0.7875   -0.0000 C   0  0  0  0  0  0  0  0  0  0  0  0
   -1.0968    0.0289   -0.0000 C   0  0  0  0  0  0  0  0  0  0  0  0
   -1.0920   -1.1787   -0.0000 O   0  0  0  0  0  0  0  0  0  0  0  0
   -2.4049    0.7772   -0.0000 C   0  0  0  0  0  0  0  0  0  0  0  0
   -3.5639   -0.2216    0.0000 C   0  0  0  0  0  0  0  0  0  0  0  0
    4.8028    0.1272    0.0000 H   0  0  0  0  0  0  0  0  0  0  0  0
    3.8057   -1.0484    0.8900 H   0  0  0  0  0  0  0  0  0  0  0  0
    3.8057   -1.0484   -0.8900 H   0  0  0  0  0  0  0  0  0  0  0  0
    2.7494    1.1950    0.8900 H   0  0  0  0  0  0  0  0  0  0  0  0
    2.7494    1.1950   -0.8900 H   0  0  0  0  0  0  0  0  0  0  0  0
    1.3169   -0.8290   -0.8900 H   0  0  0  0  0  0  0  0  0  0  0  0
    1.3169   -0.8290    0.8900 H   0  0  0  0  0  0  0  0  0  0  0  0
    0.2606    1.4144    0.8900 H   0  0  0  0  0  0  0  0  0  0  0  0
    0.2606    1.4144   -0.8900 H   0  0  0  0  0  0  0  0  0  0  0  0
   -2.4651    1.4037    0.8900 H   0  0  0  0  0  0  0  0  0  0  0  0
   -2.4651    1.4037   -0.8900 H   0  0  0  0  0  0  0  0  0  0  0  0
   -3.5036   -0.8480   -0.8900 H   0  0  0  0  0  0  0  0  0  0  0  0
   -3.5036   -0.8480    0.8900 H   0  0  0  0  0  0  0  0  0  0  0  0
   -4.5100    0.3197    0.0000 H   0  0  0  0  0  0  0  0  0  0  0  0
  1  2  1  0  0  0  0
  2  3  1  0  0  0  0
  3  4  1  0  0  0  0
  4  5  1  0  0  0  0
  5  6  2  0  0  0  0
  5  7  1  0  0  0  0
  7  8  1  0  0  0  0
  1  9  1  0  0  0  0
  1 10  1  0  0  0  0
  1 11  1  0  0  0  0
  2 12  1  0  0  0  0
  2 13  1  0  0  0  0
  3 14  1  0  0  0  0
  3 15  1  0  0  0  0
  4 16  1  0  0  0  0
  4 17  1  0  0  0  0
  7 18  1  0  0  0  0
  7 19  1  0  0  0  0
  8 20  1  0  0  0  0
  8 21  1  0  0  0  0
  8 22  1  0  0  0  0
M  END
$$$$
