C10H18O2
APtclcactv05262212113D 0   0.00000     0.00000
 
 30 29  0  0  0  0  0  0  0  0999 V2000
    5.6348    0.1028    0.3343 C   0  0  0  0  0  0  0  0  0  0  0  0
    4.3141   -0.5198   -0.1228 C   0  0  0  0  0  0  0  0  0  0  0  0
    3.1512    0.3739    0.3128 C   0  0  0  0  0  0  0  0  0  0  0  0
    1.8305   -0.2487   -0.1443 C   0  0  0  0  0  0  0  0  0  0  0  0
    0.6676    0.6450    0.2913 C   0  0  0  0  0  0  0  0  0  0  0  0
   -0.6333    0.0317   -0.1590 C   0  0  0  0  0  0  0  0  0  0  0  0
   -0.6305   -1.0124   -0.7657 O   0  0  0  0  0  0  0  0  0  0  0  0
   -1.9376    0.7215    0.1479 C   0  0  0  0  0  0  0  0  0  0  0  0
   -2.2892    1.6784   -0.9929 C   0  0  0  0  0  0  0  0  0  0  0  0
   -3.0281   -0.3083    0.2940 C   0  0  0  0  0  0  0  0  0  0  0  0
   -4.2493   -0.0003    1.1217 C   0  0  0  0  0  0  0  0  0  0  0  0
   -2.9235   -1.3802   -0.2522 O   0  0  0  0  0  0  0  0  0  0  0  0
    5.6357    0.1966    1.4203 H   0  0  0  0  0  0  0  0  0  0  0  0
    6.4633   -0.5339    0.0240 H   0  0  0  0  0  0  0  0  0  0  0  0
    5.7464    1.0893   -0.1156 H   0  0  0  0  0  0  0  0  0  0  0  0
    4.3133   -0.6135   -1.2088 H   0  0  0  0  0  0  0  0  0  0  0  0
    4.2026   -1.5063    0.3271 H   0  0  0  0  0  0  0  0  0  0  0  0
    3.1520    0.4677    1.3988 H   0  0  0  0  0  0  0  0  0  0  0  0
    3.2628    1.3604   -0.1371 H   0  0  0  0  0  0  0  0  0  0  0  0
    1.8297   -0.3425   -1.2303 H   0  0  0  0  0  0  0  0  0  0  0  0
    1.7189   -1.2352    0.3056 H   0  0  0  0  0  0  0  0  0  0  0  0
    0.6684    0.7387    1.3773 H   0  0  0  0  0  0  0  0  0  0  0  0
    0.7791    1.6315   -0.1586 H   0  0  0  0  0  0  0  0  0  0  0  0
   -1.8416    1.2834    1.0770 H   0  0  0  0  0  0  0  0  0  0  0  0
   -1.5004    2.4232   -1.0986 H   0  0  0  0  0  0  0  0  0  0  0  0
   -2.3852    1.1164   -1.9220 H   0  0  0  0  0  0  0  0  0  0  0  0
   -3.2326    2.1772   -0.7710 H   0  0  0  0  0  0  0  0  0  0  0  0
   -4.7607    0.8677    0.7058 H   0  0  0  0  0  0  0  0  0  0  0  0
   -4.9216   -0.8582    1.1105 H   0  0  0  0  0  0  0  0  0  0  0  0
   -3.9486    0.2122    2.1477 H   0  0  0  0  0  0  0  0  0  0  0  0
  1  2  1  0  0  0  0
  2  3  1  0  0  0  0
  3  4  1  0  0  0  0
  4  5  1  0  0  0  0
  5  6  1  0  0  0  0
  6  7  2  0  0  0  0
  6  8  1  0  0  0  0
  8  9  1  0  0  0  0
  8 10  1  0  0  0  0
 10 11  1  0  0  0  0
 10 12  2  0  0  0  0
  1 13  1  0  0  0  0
  1 14  1  0  0  0  0
  1 15  1  0  0  0  0
  2 16  1  0  0  0  0
  2 17  1  0  0  0  0
  3 18  1  0  0  0  0
  3 19  1  0  0  0  0
  4 20  1  0  0  0  0
  4 21  1  0  0  0  0
  5 22  1  0  0  0  0
  5 23  1  0  0  0  0
  8 24  1  0  0  0  0
  9 25  1  0  0  0  0
  9 26  1  0  0  0  0
  9 27  1  0  0  0  0
 11 28  1  0  0  0  0
 11 29  1  0  0  0  0
 11 30  1  0  0  0  0
M  END
$$$$
