C9H20OS
APtclcactv05262212113D 0   0.00000     0.00000
 
 31 30  0  0  0  0  0  0  0  0999 V2000
    5.4805    0.5028    0.2246 C   0  0  0  0  0  0  0  0  0  0  0  0
    4.2245   -0.1195   -0.3887 C   0  0  0  0  0  0  0  0  0  0  0  0
    2.9823    0.4954    0.2591 C   0  0  0  0  0  0  0  0  0  0  0  0
    1.7263   -0.1268   -0.3542 C   0  0  0  0  0  0  0  0  0  0  0  0
    0.4840    0.4881    0.2936 C   0  0  0  0  0  0  0  0  0  0  0  0
   -0.7720   -0.1342   -0.3197 C   0  0  0  0  0  0  0  0  0  0  0  0
   -0.8374   -1.8987    0.0962 S   0  0  0  0  0  0  0  0  0  0  0  0
   -2.0125    0.5673    0.2369 C   0  0  0  0  0  0  0  0  0  0  0  0
   -1.9573    2.0555   -0.1139 C   0  0  0  0  0  0  0  0  0  0  0  0
   -3.2685   -0.0549   -0.3764 C   0  0  0  0  0  0  0  0  0  0  0  0
   -4.4288    0.5194    0.2286 O   0  0  0  0  0  0  0  0  0  0  0  0
    5.4749    1.5788    0.0507 H   0  0  0  0  0  0  0  0  0  0  0  0
    5.4959    0.3081    1.2969 H   0  0  0  0  0  0  0  0  0  0  0  0
    6.3655    0.0647   -0.2369 H   0  0  0  0  0  0  0  0  0  0  0  0
    4.2091    0.0752   -1.4611 H   0  0  0  0  0  0  0  0  0  0  0  0
    4.2301   -1.1955   -0.2148 H   0  0  0  0  0  0  0  0  0  0  0  0
    2.9977    0.3008    1.3315 H   0  0  0  0  0  0  0  0  0  0  0  0
    2.9767    1.5714    0.0852 H   0  0  0  0  0  0  0  0  0  0  0  0
    1.7109    0.0678   -1.4266 H   0  0  0  0  0  0  0  0  0  0  0  0
    1.7318   -1.2029   -0.1803 H   0  0  0  0  0  0  0  0  0  0  0  0
    0.4994    0.2934    1.3660 H   0  0  0  0  0  0  0  0  0  0  0  0
    0.4785    1.5641    0.1197 H   0  0  0  0  0  0  0  0  0  0  0  0
   -0.7436   -0.0170   -1.4030 H   0  0  0  0  0  0  0  0  0  0  0  0
   -0.8678   -1.8917    1.4408 H   0  0  0  0  0  0  0  0  0  0  0  0
   -2.0409    0.4502    1.3202 H   0  0  0  0  0  0  0  0  0  0  0  0
   -1.9290    2.1727   -1.1972 H   0  0  0  0  0  0  0  0  0  0  0  0
   -2.8411    2.5553    0.2826 H   0  0  0  0  0  0  0  0  0  0  0  0
   -1.0625    2.4989    0.3230 H   0  0  0  0  0  0  0  0  0  0  0  0
   -3.2839    0.1397   -1.4488 H   0  0  0  0  0  0  0  0  0  0  0  0
   -3.2630   -1.1310   -0.2025 H   0  0  0  0  0  0  0  0  0  0  0  0
   -5.2637    0.1708   -0.1127 H   0  0  0  0  0  0  0  0  0  0  0  0
  1  2  1  0  0  0  0
  2  3  1  0  0  0  0
  3  4  1  0  0  0  0
  4  5  1  0  0  0  0
  5  6  1  0  0  0  0
  6  7  1  0  0  0  0
  6  8  1  0  0  0  0
  8  9  1  0  0  0  0
  8 10  1  0  0  0  0
 10 11  1  0  0  0  0
  1 12  1  0  0  0  0
  1 13  1  0  0  0  0
  1 14  1  0  0  0  0
  2 15  1  0  0  0  0
  2 16  1  0  0  0  0
  3 17  1  0  0  0  0
  3 18  1  0  0  0  0
  4 19  1  0  0  0  0
  4 20  1  0  0  0  0
  5 21  1  0  0  0  0
  5 22  1  0  0  0  0
  6 23  1  0  0  0  0
  7 24  1  0  0  0  0
  8 25  1  0  0  0  0
  9 26  1  0  0  0  0
  9 27  1  0  0  0  0
  9 28  1  0  0  0  0
 10 29  1  0  0  0  0
 10 30  1  0  0  0  0
 11 31  1  0  0  0  0
M  END
$$$$
