C8H18OS
APtclcactv05262212242D 0   0.00000     0.00000
 
 28 27  0  0  0  0  0  0  0  0999 V2000
    2.0000   -0.0950    0.0000 C   0  0  0  0  0  0  0  0  0  0  0  0
    2.8660    0.4050    0.0000 C   0  0  0  0  0  0  0  0  0  0  0  0
    3.7321   -0.0950    0.0000 C   0  0  0  0  0  0  0  0  0  0  0  0
    4.5981    0.4050    0.0000 C   0  0  0  0  0  0  0  0  0  0  0  0
    5.4641   -0.0950    0.0000 C   0  0  0  0  0  0  0  0  0  0  0  0
    6.3301    0.4050    0.0000 C   0  0  0  0  0  0  0  0  0  0  0  0
    6.3301    1.4050    0.0000 C   0  0  0  0  0  0  0  0  0  0  0  0
    7.1962   -0.0950    0.0000 C   0  0  0  0  0  0  0  0  0  0  0  0
    8.0622    0.4050    0.0000 O   0  0  0  0  0  0  0  0  0  0  0  0
    5.4641   -1.0950    0.0000 S   0  0  0  0  0  0  0  0  0  0  0  0
    1.6900    0.4419    0.0000 H   0  0  0  0  0  0  0  0  0  0  0  0
    1.4631   -0.4050    0.0000 H   0  0  0  0  0  0  0  0  0  0  0  0
    2.3100   -0.6319    0.0000 H   0  0  0  0  0  0  0  0  0  0  0  0
    3.2646    0.8799    0.0000 H   0  0  0  0  0  0  0  0  0  0  0  0
    2.4675    0.8799    0.0000 H   0  0  0  0  0  0  0  0  0  0  0  0
    3.3335   -0.5699    0.0000 H   0  0  0  0  0  0  0  0  0  0  0  0
    4.1306   -0.5699    0.0000 H   0  0  0  0  0  0  0  0  0  0  0  0
    4.9966    0.8799    0.0000 H   0  0  0  0  0  0  0  0  0  0  0  0
    4.1995    0.8799    0.0000 H   0  0  0  0  0  0  0  0  0  0  0  0
    6.0010   -0.4050    0.0000 H   0  0  0  0  0  0  0  0  0  0  0  0
    6.8671    0.7150    0.0000 H   0  0  0  0  0  0  0  0  0  0  0  0
    6.9501    1.4050    0.0000 H   0  0  0  0  0  0  0  0  0  0  0  0
    6.3301    2.0250    0.0000 H   0  0  0  0  0  0  0  0  0  0  0  0
    5.7101    1.4050    0.0000 H   0  0  0  0  0  0  0  0  0  0  0  0
    6.7976   -0.5699    0.0000 H   0  0  0  0  0  0  0  0  0  0  0  0
    7.5947   -0.5699    0.0000 H   0  0  0  0  0  0  0  0  0  0  0  0
    8.5991    0.0950    0.0000 H   0  0  0  0  0  0  0  0  0  0  0  0
    4.9272   -1.4050    0.0000 H   0  0  0  0  0  0  0  0  0  0  0  0
  1  2  1  0  0  0  0
  2  3  1  0  0  0  0
  3  4  1  0  0  0  0
  4  5  1  0  0  0  0
  5  6  1  0  0  0  0
  6  7  1  0  0  0  0
  6  8  1  0  0  0  0
  8  9  1  0  0  0  0
  5 10  1  0  0  0  0
  1 11  1  0  0  0  0
  1 12  1  0  0  0  0
  1 13  1  0  0  0  0
  2 14  1  0  0  0  0
  2 15  1  0  0  0  0
  3 16  1  0  0  0  0
  3 17  1  0  0  0  0
  4 18  1  0  0  0  0
  4 19  1  0  0  0  0
  5 20  1  0  0  0  0
  6 21  1  0  0  0  0
  7 22  1  0  0  0  0
  7 23  1  0  0  0  0
  7 24  1  0  0  0  0
  8 25  1  0  0  0  0
  8 26  1  0  0  0  0
  9 27  1  0  0  0  0
 10 28  1  0  0  0  0
M  END
$$$$
