C5H12S
APtclcactv05262212113D 0   0.00000     0.00000
 
 18 17  0  0  0  0  0  0  0  0999 V2000
   -1.0198   -1.1767    0.9687 C   0  0  0  0  0  0  0  0  0  0  0  0
   -0.9448   -0.4744   -0.3886 C   0  0  0  0  0  0  0  0  0  0  0  0
   -2.2645    0.2500   -0.6615 C   0  0  0  0  0  0  0  0  0  0  0  0
    0.2005    0.5400   -0.3753 C   0  0  0  0  0  0  0  0  0  0  0  0
    0.0162    1.5021    0.8000 C   0  0  0  0  0  0  0  0  0  0  0  0
    1.7803   -0.3339   -0.1993 S   0  0  0  0  0  0  0  0  0  0  0  0
   -1.1974   -0.4383    1.7505 H   0  0  0  0  0  0  0  0  0  0  0  0
   -1.8357   -1.8993    0.9592 H   0  0  0  0  0  0  0  0  0  0  0  0
   -0.0796   -1.6927    1.1631 H   0  0  0  0  0  0  0  0  0  0  0  0
   -0.7671   -1.2127   -1.1704 H   0  0  0  0  0  0  0  0  0  0  0  0
   -2.4422    0.9884    0.1203 H   0  0  0  0  0  0  0  0  0  0  0  0
   -2.2111    0.7504   -1.6284 H   0  0  0  0  0  0  0  0  0  0  0  0
   -3.0805   -0.4727   -0.6710 H   0  0  0  0  0  0  0  0  0  0  0  0
    0.1985    1.1025   -1.3090 H   0  0  0  0  0  0  0  0  0  0  0  0
    0.8321    2.2247    0.8095 H   0  0  0  0  0  0  0  0  0  0  0  0
   -0.9331    2.0272    0.6943 H   0  0  0  0  0  0  0  0  0  0  0  0
    0.0182    0.9396    1.7337 H   0  0  0  0  0  0  0  0  0  0  0  0
    2.6808    0.6651   -0.2029 H   0  0  0  0  0  0  0  0  0  0  0  0
  1  2  1  0  0  0  0
  2  3  1  0  0  0  0
  2  4  1  0  0  0  0
  4  5  1  0  0  0  0
  4  6  1  0  0  0  0
  1  7  1  0  0  0  0
  1  8  1  0  0  0  0
  1  9  1  0  0  0  0
  2 10  1  0  0  0  0
  3 11  1  0  0  0  0
  3 12  1  0  0  0  0
  3 13  1  0  0  0  0
  4 14  1  0  0  0  0
  5 15  1  0  0  0  0
  5 16  1  0  0  0  0
  5 17  1  0  0  0  0
  6 18  1  0  0  0  0
M  END
$$$$
