C8H16O2S
APtclcactv05262212113D 0   0.00000     0.00000
 
 27 26  0  0  0  0  0  0  0  0999 V2000
    5.0257    1.0128   -0.0739 C   0  0  0  0  0  0  0  0  0  0  0  0
    3.7838    0.2312   -0.5072 C   0  0  0  0  0  0  0  0  0  0  0  0
    2.5443    0.8346    0.1565 C   0  0  0  0  0  0  0  0  0  0  0  0
    1.3024    0.0530   -0.2767 C   0  0  0  0  0  0  0  0  0  0  0  0
    1.4060   -1.6448    0.3538 S   0  0  0  0  0  0  0  0  0  0  0  0
    0.0513    0.7306    0.2860 C   0  0  0  0  0  0  0  0  0  0  0  0
   -1.1958    0.0235   -0.2485 C   0  0  0  0  0  0  0  0  0  0  0  0
   -2.3830    0.6665    0.2855 O   0  0  0  0  0  0  0  0  0  0  0  0
   -3.5695    0.1629   -0.0890 C   0  0  0  0  0  0  0  0  0  0  0  0
   -4.8455    0.7784    0.4250 C   0  0  0  0  0  0  0  0  0  0  0  0
   -3.6146   -0.7839   -0.8383 O   0  0  0  0  0  0  0  0  0  0  0  0
    5.1303    0.9573    1.0096 H   0  0  0  0  0  0  0  0  0  0  0  0
    5.9088    0.5830   -0.5467 H   0  0  0  0  0  0  0  0  0  0  0  0
    4.9228    2.0551   -0.3760 H   0  0  0  0  0  0  0  0  0  0  0  0
    3.6792    0.2868   -1.5907 H   0  0  0  0  0  0  0  0  0  0  0  0
    3.8868   -0.8110   -0.2051 H   0  0  0  0  0  0  0  0  0  0  0  0
    2.6489    0.7790    1.2400 H   0  0  0  0  0  0  0  0  0  0  0  0
    2.4414    1.8768   -0.1456 H   0  0  0  0  0  0  0  0  0  0  0  0
    1.2467    0.0336   -1.3651 H   0  0  0  0  0  0  0  0  0  0  0  0
    1.4679   -1.4695    1.6859 H   0  0  0  0  0  0  0  0  0  0  0  0
    0.0643    0.6712    1.3743 H   0  0  0  0  0  0  0  0  0  0  0  0
    0.0355    1.7764   -0.0206 H   0  0  0  0  0  0  0  0  0  0  0  0
   -1.2087    0.0829   -1.3368 H   0  0  0  0  0  0  0  0  0  0  0  0
   -1.1799   -1.0224    0.0581 H   0  0  0  0  0  0  0  0  0  0  0  0
   -5.1697    1.5649   -0.2564 H   0  0  0  0  0  0  0  0  0  0  0  0
   -5.6181    0.0122    0.4896 H   0  0  0  0  0  0  0  0  0  0  0  0
   -4.6714    1.2031    1.4136 H   0  0  0  0  0  0  0  0  0  0  0  0
  1  2  1  0  0  0  0
  2  3  1  0  0  0  0
  3  4  1  0  0  0  0
  4  5  1  0  0  0  0
  4  6  1  0  0  0  0
  6  7  1  0  0  0  0
  7  8  1  0  0  0  0
  8  9  1  0  0  0  0
  9 10  1  0  0  0  0
  9 11  2  0  0  0  0
  1 12  1  0  0  0  0
  1 13  1  0  0  0  0
  1 14  1  0  0  0  0
  2 15  1  0  0  0  0
  2 16  1  0  0  0  0
  3 17  1  0  0  0  0
  3 18  1  0  0  0  0
  4 19  1  0  0  0  0
  5 20  1  0  0  0  0
  6 21  1  0  0  0  0
  6 22  1  0  0  0  0
  7 23  1  0  0  0  0
  7 24  1  0  0  0  0
 10 25  1  0  0  0  0
 10 26  1  0  0  0  0
 10 27  1  0  0  0  0
M  END
$$$$
