C4H10OS
APtclcactv05262212113D 0   0.00000     0.00000
 
 16 15  0  0  0  0  0  0  0  0999 V2000
   -0.4500    1.4673   -0.3247 C   0  0  0  0  0  0  0  0  0  0  0  0
   -0.4536    0.0216    0.1762 C   0  0  0  0  0  0  0  0  0  0  0  0
   -1.7503   -0.6651   -0.2570 C   0  0  0  0  0  0  0  0  0  0  0  0
   -2.8601   -0.0383    0.3892 O   0  0  0  0  0  0  0  0  0  0  0  0
    0.7423   -0.7264   -0.4164 C   0  0  0  0  0  0  0  0  0  0  0  0
    2.2813   -0.0034    0.2154 S   0  0  0  0  0  0  0  0  0  0  0  0
    0.4738    1.9565   -0.0160 H   0  0  0  0  0  0  0  0  0  0  0  0
   -0.5194    1.4750   -1.4125 H   0  0  0  0  0  0  0  0  0  0  0  0
   -1.3020    2.0002    0.0975 H   0  0  0  0  0  0  0  0  0  0  0  0
   -0.3842    0.0138    1.2640 H   0  0  0  0  0  0  0  0  0  0  0  0
   -1.8634   -0.5793   -1.3378 H   0  0  0  0  0  0  0  0  0  0  0  0
   -1.7147   -1.7181    0.0221 H   0  0  0  0  0  0  0  0  0  0  0  0
   -3.7172   -0.4234    0.1605 H   0  0  0  0  0  0  0  0  0  0  0  0
    0.6909   -1.7773   -0.1317 H   0  0  0  0  0  0  0  0  0  0  0  0
    0.7209   -0.6429   -1.5030 H   0  0  0  0  0  0  0  0  0  0  0  0
    3.2314   -0.7471   -0.3790 H   0  0  0  0  0  0  0  0  0  0  0  0
  1  2  1  0  0  0  0
  2  3  1  0  0  0  0
  3  4  1  0  0  0  0
  2  5  1  0  0  0  0
  5  6  1  0  0  0  0
  1  7  1  0  0  0  0
  1  8  1  0  0  0  0
  1  9  1  0  0  0  0
  2 10  1  0  0  0  0
  3 11  1  0  0  0  0
  3 12  1  0  0  0  0
  4 13  1  0  0  0  0
  5 14  1  0  0  0  0
  5 15  1  0  0  0  0
  6 16  1  0  0  0  0
M  END
$$$$
