C9H18O
APtclcactv05262212113D 0   0.00000     0.00000
 
 28 27  0  0  0  0  0  0  0  0999 V2000
    5.2066   -0.5007   -0.0000 C   0  0  0  0  0  0  0  0  0  0  0  0
    4.0192    0.4641    0.0000 C   0  0  0  0  0  0  0  0  0  0  0  0
    2.7137   -0.3339   -0.0000 C   0  0  0  0  0  0  0  0  0  0  0  0
    1.5262    0.6309    0.0000 C   0  0  0  0  0  0  0  0  0  0  0  0
    0.2208   -0.1671   -0.0000 C   0  0  0  0  0  0  0  0  0  0  0  0
   -0.9667    0.7977   -0.0000 C   0  0  0  0  0  0  0  0  0  0  0  0
   -2.2525    0.0117   -0.0000 C   0  0  0  0  0  0  0  0  0  0  0  0
   -2.2222   -1.1955   -0.0000 O   0  0  0  0  0  0  0  0  0  0  0  0
   -3.5760    0.7323   -0.0000 C   0  0  0  0  0  0  0  0  0  0  0  0
   -4.7137   -0.2908    0.0000 C   0  0  0  0  0  0  0  0  0  0  0  0
    5.1646   -1.1286    0.8900 H   0  0  0  0  0  0  0  0  0  0  0  0
    5.1646   -1.1286   -0.8900 H   0  0  0  0  0  0  0  0  0  0  0  0
    6.1366    0.0678    0.0000 H   0  0  0  0  0  0  0  0  0  0  0  0
    4.0612    1.0920    0.8900 H   0  0  0  0  0  0  0  0  0  0  0  0
    4.0612    1.0920   -0.8900 H   0  0  0  0  0  0  0  0  0  0  0  0
    2.6717   -0.9618   -0.8900 H   0  0  0  0  0  0  0  0  0  0  0  0
    2.6717   -0.9618    0.8900 H   0  0  0  0  0  0  0  0  0  0  0  0
    1.5683    1.2588    0.8900 H   0  0  0  0  0  0  0  0  0  0  0  0
    1.5683    1.2588   -0.8900 H   0  0  0  0  0  0  0  0  0  0  0  0
    0.1788   -0.7950   -0.8900 H   0  0  0  0  0  0  0  0  0  0  0  0
    0.1788   -0.7950    0.8900 H   0  0  0  0  0  0  0  0  0  0  0  0
   -0.9246    1.4256    0.8900 H   0  0  0  0  0  0  0  0  0  0  0  0
   -0.9246    1.4256   -0.8900 H   0  0  0  0  0  0  0  0  0  0  0  0
   -3.6495    1.3573    0.8900 H   0  0  0  0  0  0  0  0  0  0  0  0
   -3.6495    1.3573   -0.8900 H   0  0  0  0  0  0  0  0  0  0  0  0
   -4.6402   -0.9158   -0.8900 H   0  0  0  0  0  0  0  0  0  0  0  0
   -4.6402   -0.9158    0.8900 H   0  0  0  0  0  0  0  0  0  0  0  0
   -5.6710    0.2304    0.0000 H   0  0  0  0  0  0  0  0  0  0  0  0
  1  2  1  0  0  0  0
  2  3  1  0  0  0  0
  3  4  1  0  0  0  0
  4  5  1  0  0  0  0
  5  6  1  0  0  0  0
  6  7  1  0  0  0  0
  7  8  2  0  0  0  0
  7  9  1  0  0  0  0
  9 10  1  0  0  0  0
  1 11  1  0  0  0  0
  1 12  1  0  0  0  0
  1 13  1  0  0  0  0
  2 14  1  0  0  0  0
  2 15  1  0  0  0  0
  3 16  1  0  0  0  0
  3 17  1  0  0  0  0
  4 18  1  0  0  0  0
  4 19  1  0  0  0  0
  5 20  1  0  0  0  0
  5 21  1  0  0  0  0
  6 22  1  0  0  0  0
  6 23  1  0  0  0  0
  9 24  1  0  0  0  0
  9 25  1  0  0  0  0
 10 26  1  0  0  0  0
 10 27  1  0  0  0  0
 10 28  1  0  0  0  0
M  END
$$$$
