C8H18O
APtclcactv05262212103D 0   0.00000     0.00000
 
 27 26  0  0  0  0  0  0  0  0999 V2000
    4.6394    0.2389    0.1205 C   0  0  0  0  0  0  0  0  0  0  0  0
    3.3320   -0.3927   -0.3619 C   0  0  0  0  0  0  0  0  0  0  0  0
    2.1472    0.4025    0.1902 C   0  0  0  0  0  0  0  0  0  0  0  0
    0.8399   -0.2291   -0.2923 C   0  0  0  0  0  0  0  0  0  0  0  0
   -0.3449    0.5662    0.2598 C   0  0  0  0  0  0  0  0  0  0  0  0
   -1.6523   -0.0654   -0.2227 C   0  0  0  0  0  0  0  0  0  0  0  0
   -1.7830   -1.3747    0.3349 O   0  0  0  0  0  0  0  0  0  0  0  0
   -2.8322    0.7996    0.2249 C   0  0  0  0  0  0  0  0  0  0  0  0
   -4.1284    0.2373   -0.3621 C   0  0  0  0  0  0  0  0  0  0  0  0
    4.6971    1.2687   -0.2319 H   0  0  0  0  0  0  0  0  0  0  0  0
    4.6689    0.2256    1.2100 H   0  0  0  0  0  0  0  0  0  0  0  0
    5.4834   -0.3276   -0.2728 H   0  0  0  0  0  0  0  0  0  0  0  0
    3.3024   -0.3794   -1.4515 H   0  0  0  0  0  0  0  0  0  0  0  0
    3.2742   -1.4225   -0.0095 H   0  0  0  0  0  0  0  0  0  0  0  0
    2.1768    0.3892    1.2797 H   0  0  0  0  0  0  0  0  0  0  0  0
    2.2050    1.4324   -0.1623 H   0  0  0  0  0  0  0  0  0  0  0  0
    0.8103   -0.2157   -1.3818 H   0  0  0  0  0  0  0  0  0  0  0  0
    0.7821   -1.2589    0.0602 H   0  0  0  0  0  0  0  0  0  0  0  0
   -0.3154    0.5528    1.3493 H   0  0  0  0  0  0  0  0  0  0  0  0
   -0.2872    1.5960   -0.0927 H   0  0  0  0  0  0  0  0  0  0  0  0
   -1.6434   -0.1331   -1.3105 H   0  0  0  0  0  0  0  0  0  0  0  0
   -1.7981   -1.3907    1.3017 H   0  0  0  0  0  0  0  0  0  0  0  0
   -2.8941    0.7949    1.3131 H   0  0  0  0  0  0  0  0  0  0  0  0
   -2.6875    1.8213   -0.1264 H   0  0  0  0  0  0  0  0  0  0  0  0
   -4.0666    0.2421   -1.4503 H   0  0  0  0  0  0  0  0  0  0  0  0
   -4.2731   -0.7844   -0.0108 H   0  0  0  0  0  0  0  0  0  0  0  0
   -4.9690    0.8536   -0.0432 H   0  0  0  0  0  0  0  0  0  0  0  0
  1  2  1  0  0  0  0
  2  3  1  0  0  0  0
  3  4  1  0  0  0  0
  4  5  1  0  0  0  0
  5  6  1  0  0  0  0
  6  7  1  0  0  0  0
  6  8  1  0  0  0  0
  8  9  1  0  0  0  0
  1 10  1  0  0  0  0
  1 11  1  0  0  0  0
  1 12  1  0  0  0  0
  2 13  1  0  0  0  0
  2 14  1  0  0  0  0
  3 15  1  0  0  0  0
  3 16  1  0  0  0  0
  4 17  1  0  0  0  0
  4 18  1  0  0  0  0
  5 19  1  0  0  0  0
  5 20  1  0  0  0  0
  6 21  1  0  0  0  0
  7 22  1  0  0  0  0
  8 23  1  0  0  0  0
  8 24  1  0  0  0  0
  9 25  1  0  0  0  0
  9 26  1  0  0  0  0
  9 27  1  0  0  0  0
M  END
$$$$
