C12H16O2
APtclcactv05262212113D 0   0.00000     0.00000
 
 30 30  0  0  0  0  0  0  0  0999 V2000
    6.0156   -0.0077   -0.4074 C   0  0  0  0  0  0  0  0  0  0  0  0
    4.6557   -0.0212   -1.1084 C   0  0  0  0  0  0  0  0  0  0  0  0
    3.5581   -0.0014   -0.0760 C   0  0  0  0  0  0  0  0  0  0  0  0
    3.8350    0.0212    1.0999 O   0  0  0  0  0  0  0  0  0  0  0  0
    2.2727   -0.0088   -0.4627 O   0  0  0  0  0  0  0  0  0  0  0  0
    1.2687    0.0113    0.5860 C   0  0  0  0  0  0  0  0  0  0  0  0
   -0.1260   -0.0008   -0.0429 C   0  0  0  0  0  0  0  0  0  0  0  0
   -1.1840    0.0204    1.0621 C   0  0  0  0  0  0  0  0  0  0  0  0
   -2.5577    0.0085    0.4427 C   0  0  0  0  0  0  0  0  0  0  0  0
   -3.1878   -1.1939    0.1815 C   0  0  0  0  0  0  0  0  0  0  0  0
   -4.4479   -1.2049   -0.3867 C   0  0  0  0  0  0  0  0  0  0  0  0
   -5.0781   -0.0134   -0.6935 C   0  0  0  0  0  0  0  0  0  0  0  0
   -4.4485    1.1890   -0.4315 C   0  0  0  0  0  0  0  0  0  0  0  0
   -3.1902    1.2000    0.1407 C   0  0  0  0  0  0  0  0  0  0  0  0
    6.1030    0.8941    0.1986 H   0  0  0  0  0  0  0  0  0  0  0  0
    6.1030   -0.8856    0.2328 H   0  0  0  0  0  0  0  0  0  0  0  0
    6.8094   -0.0220   -1.1541 H   0  0  0  0  0  0  0  0  0  0  0  0
    4.5682    0.8566   -1.7486 H   0  0  0  0  0  0  0  0  0  0  0  0
    4.5682   -0.9230   -1.7144 H   0  0  0  0  0  0  0  0  0  0  0  0
    1.3886   -0.8667    1.2207 H   0  0  0  0  0  0  0  0  0  0  0  0
    1.3886    0.9130    1.1866 H   0  0  0  0  0  0  0  0  0  0  0  0
   -0.2460    0.8771   -0.6777 H   0  0  0  0  0  0  0  0  0  0  0  0
   -0.2460   -0.9025   -0.6435 H   0  0  0  0  0  0  0  0  0  0  0  0
   -1.0640   -0.8576    1.6969 H   0  0  0  0  0  0  0  0  0  0  0  0
   -1.0641    0.9221    1.6627 H   0  0  0  0  0  0  0  0  0  0  0  0
   -2.6954   -2.1248    0.4212 H   0  0  0  0  0  0  0  0  0  0  0  0
   -4.9398   -2.1443   -0.5914 H   0  0  0  0  0  0  0  0  0  0  0  0
   -6.0623   -0.0220   -1.1381 H   0  0  0  0  0  0  0  0  0  0  0  0
   -4.9407    2.1199   -0.6715 H   0  0  0  0  0  0  0  0  0  0  0  0
   -2.6982    2.1394    0.3454 H   0  0  0  0  0  0  0  0  0  0  0  0
  1  2  1  0  0  0  0
  2  3  1  0  0  0  0
  3  4  2  0  0  0  0
  3  5  1  0  0  0  0
  5  6  1  0  0  0  0
  6  7  1  0  0  0  0
  7  8  1  0  0  0  0
  8  9  1  0  0  0  0
  9 10  1  0  0  0  0
 10 11  2  0  0  0  0
 11 12  1  0  0  0  0
 12 13  2  0  0  0  0
 13 14  1  0  0  0  0
  9 14  2  0  0  0  0
  1 15  1  0  0  0  0
  1 16  1  0  0  0  0
  1 17  1  0  0  0  0
  2 18  1  0  0  0  0
  2 19  1  0  0  0  0
  6 20  1  0  0  0  0
  6 21  1  0  0  0  0
  7 22  1  0  0  0  0
  7 23  1  0  0  0  0
  8 24  1  0  0  0  0
  8 25  1  0  0  0  0
 10 26  1  0  0  0  0
 11 27  1  0  0  0  0
 12 28  1  0  0  0  0
 13 29  1  0  0  0  0
 14 30  1  0  0  0  0
M  END
$$$$
