C6H10O2
APtclcactv05262212113D 0   0.00000     0.00000
 
 18 17  0  0  0  0  0  0  0  0999 V2000
    3.1709    0.0544   -0.0000 C   0  0  0  0  0  0  0  0  0  0  0  0
    1.8252    0.7824   -0.0000 C   0  0  0  0  0  0  0  0  0  0  0  0
    0.7073   -0.2282    0.0000 C   0  0  0  0  0  0  0  0  0  0  0  0
    0.9608   -1.4092    0.0000 O   0  0  0  0  0  0  0  0  0  0  0  0
   -0.7073    0.2282    0.0000 C   0  0  0  0  0  0  0  0  0  0  0  0
   -0.9608    1.4092    0.0000 O   0  0  0  0  0  0  0  0  0  0  0  0
   -1.8252   -0.7824    0.0000 C   0  0  0  0  0  0  0  0  0  0  0  0
   -3.1709   -0.0544   -0.0000 C   0  0  0  0  0  0  0  0  0  0  0  0
    3.2459   -0.5705    0.8900 H   0  0  0  0  0  0  0  0  0  0  0  0
    3.2459   -0.5705   -0.8900 H   0  0  0  0  0  0  0  0  0  0  0  0
    3.9794    0.7853   -0.0000 H   0  0  0  0  0  0  0  0  0  0  0  0
    1.7501    1.4072    0.8900 H   0  0  0  0  0  0  0  0  0  0  0  0
    1.7501    1.4072   -0.8900 H   0  0  0  0  0  0  0  0  0  0  0  0
   -1.7501   -1.4072   -0.8900 H   0  0  0  0  0  0  0  0  0  0  0  0
   -1.7501   -1.4072    0.8900 H   0  0  0  0  0  0  0  0  0  0  0  0
   -3.2459    0.5705   -0.8900 H   0  0  0  0  0  0  0  0  0  0  0  0
   -3.9794   -0.7853   -0.0000 H   0  0  0  0  0  0  0  0  0  0  0  0
   -3.2459    0.5705    0.8900 H   0  0  0  0  0  0  0  0  0  0  0  0
  1  2  1  0  0  0  0
  2  3  1  0  0  0  0
  3  4  2  0  0  0  0
  3  5  1  0  0  0  0
  5  6  2  0  0  0  0
  5  7  1  0  0  0  0
  7  8  1  0  0  0  0
  1  9  1  0  0  0  0
  1 10  1  0  0  0  0
  1 11  1  0  0  0  0
  2 12  1  0  0  0  0
  2 13  1  0  0  0  0
  7 14  1  0  0  0  0
  7 15  1  0  0  0  0
  8 16  1  0  0  0  0
  8 17  1  0  0  0  0
  8 18  1  0  0  0  0
M  END
$$$$
