C9H8O2
APtclcactv05262212113D 0   0.00000     0.00000
 
 19 20  0  0  0  0  0  0  0  0999 V2000
    1.6089   -2.0934    0.1601 O   0  0  0  0  0  0  0  0  0  0  0  0
    1.2994   -0.9408   -0.0567 C   0  0  0  0  0  0  0  0  0  0  0  0
    2.3401    0.1218   -0.3627 C   0  0  0  0  0  0  0  0  0  0  0  0
    1.9105    1.4011    0.3704 C   0  0  0  0  0  0  0  0  0  0  0  0
    0.6118    1.7889   -0.0774 O   0  0  0  0  0  0  0  0  0  0  0  0
   -0.3875    0.8769   -0.0427 C   0  0  0  0  0  0  0  0  0  0  0  0
   -1.7105    1.2973   -0.0144 C   0  0  0  0  0  0  0  0  0  0  0  0
   -2.7311    0.3685    0.0144 C   0  0  0  0  0  0  0  0  0  0  0  0
   -2.4526   -0.9895    0.0157 C   0  0  0  0  0  0  0  0  0  0  0  0
   -1.1465   -1.4293   -0.0090 C   0  0  0  0  0  0  0  0  0  0  0  0
   -0.1066   -0.4999   -0.0429 C   0  0  0  0  0  0  0  0  0  0  0  0
    3.3173   -0.2014   -0.0040 H   0  0  0  0  0  0  0  0  0  0  0  0
    2.3794    0.3046   -1.4365 H   0  0  0  0  0  0  0  0  0  0  0  0
    1.8842    1.2138    1.4439 H   0  0  0  0  0  0  0  0  0  0  0  0
    2.6220    2.1988    0.1573 H   0  0  0  0  0  0  0  0  0  0  0  0
   -1.9413    2.3523   -0.0145 H   0  0  0  0  0  0  0  0  0  0  0  0
   -3.7576    0.7033    0.0365 H   0  0  0  0  0  0  0  0  0  0  0  0
   -3.2614   -1.7050    0.0364 H   0  0  0  0  0  0  0  0  0  0  0  0
   -0.9292   -2.4872   -0.0068 H   0  0  0  0  0  0  0  0  0  0  0  0
  1  2  2  0  0  0  0
  2  3  1  0  0  0  0
  3  4  1  0  0  0  0
  4  5  1  0  0  0  0
  5  6  1  0  0  0  0
  6  7  1  0  0  0  0
  7  8  2  0  0  0  0
  8  9  1  0  0  0  0
  9 10  2  0  0  0  0
 10 11  1  0  0  0  0
  2 11  1  0  0  0  0
  6 11  2  0  0  0  0
  3 12  1  0  0  0  0
  3 13  1  0  0  0  0
  4 14  1  0  0  0  0
  4 15  1  0  0  0  0
  7 16  1  0  0  0  0
  8 17  1  0  0  0  0
  9 18  1  0  0  0  0
 10 19  1  0  0  0  0
M  END
$$$$
