C8H10O
APtclcactv05262212113D 0   0.00000     0.00000
 
 19 19  0  0  0  0  0  0  0  0999 V2000
    3.1789    0.0011    0.8153 C   0  0  0  0  0  0  0  0  0  0  0  0
    2.4628   -0.0009   -0.5368 C   0  0  0  0  0  0  0  0  0  0  0  0
    0.9721   -0.0005   -0.3158 C   0  0  0  0  0  0  0  0  0  0  0  0
    0.2895    1.1978   -0.2164 C   0  0  0  0  0  0  0  0  0  0  0  0
   -1.0770    1.2008   -0.0133 C   0  0  0  0  0  0  0  0  0  0  0  0
   -1.7643    0.0002    0.0904 C   0  0  0  0  0  0  0  0  0  0  0  0
   -3.1086    0.0006    0.2898 O   0  0  0  0  0  0  0  0  0  0  0  0
   -1.0771   -1.2008   -0.0101 C   0  0  0  0  0  0  0  0  0  0  0  0
    0.2885   -1.1984   -0.2184 C   0  0  0  0  0  0  0  0  0  0  0  0
    2.8949    0.8919    1.3755 H   0  0  0  0  0  0  0  0  0  0  0  0
    2.8948   -0.8880    1.3782 H   0  0  0  0  0  0  0  0  0  0  0  0
    4.2571    0.0008    0.6554 H   0  0  0  0  0  0  0  0  0  0  0  0
    2.7469    0.8882   -1.0997 H   0  0  0  0  0  0  0  0  0  0  0  0
    2.7468   -0.8917   -1.0971 H   0  0  0  0  0  0  0  0  0  0  0  0
    0.8250    2.1321   -0.2972 H   0  0  0  0  0  0  0  0  0  0  0  0
   -1.6096    2.1370    0.0650 H   0  0  0  0  0  0  0  0  0  0  0  0
   -3.6273   -0.0007   -0.5264 H   0  0  0  0  0  0  0  0  0  0  0  0
   -1.6099   -2.1367    0.0707 H   0  0  0  0  0  0  0  0  0  0  0  0
    0.8239   -2.1331   -0.2971 H   0  0  0  0  0  0  0  0  0  0  0  0
  1  2  1  0  0  0  0
  2  3  1  0  0  0  0
  3  4  1  0  0  0  0
  4  5  2  0  0  0  0
  5  6  1  0  0  0  0
  6  7  1  0  0  0  0
  6  8  2  0  0  0  0
  8  9  1  0  0  0  0
  3  9  2  0  0  0  0
  1 10  1  0  0  0  0
  1 11  1  0  0  0  0
  1 12  1  0  0  0  0
  2 13  1  0  0  0  0
  2 14  1  0  0  0  0
  4 15  1  0  0  0  0
  5 16  1  0  0  0  0
  7 17  1  0  0  0  0
  8 18  1  0  0  0  0
  9 19  1  0  0  0  0
M  END
$$$$
