C9H6O3
APtclcactv05262212242D 0   0.00000     0.00000
 
 18 19  0  0  0  0  0  0  0  0999 V2000
    6.3981    0.1169    0.0000 C   0  0  0  0  0  0  0  0  0  0  0  0
    6.3981    1.1585    0.0000 C   0  0  0  0  0  0  0  0  0  0  0  0
    5.4920    1.6723    0.0000 C   0  0  0  0  0  0  0  0  0  0  0  0
    4.5981    1.1377    0.0000 C   0  0  0  0  0  0  0  0  0  0  0  0
    4.5981    0.1377    0.0000 C   0  0  0  0  0  0  0  0  0  0  0  0
    5.4920   -0.3970    0.0000 C   0  0  0  0  0  0  0  0  0  0  0  0
    3.7321   -0.3623    0.0000 C   0  0  0  0  0  0  0  0  0  0  0  0
    2.8660    0.1377    0.0000 C   0  0  0  0  0  0  0  0  0  0  0  0
    2.8660    1.1377    0.0000 C   0  0  0  0  0  0  0  0  0  0  0  0
    2.0000    1.6377    0.0000 O   0  0  0  0  0  0  0  0  0  0  0  0
    3.7321    1.6377    0.0000 O   0  0  0  0  0  0  0  0  0  0  0  0
    3.7321   -1.3623    0.0000 O   0  0  0  0  0  0  0  0  0  0  0  0
    6.9338   -0.1952    0.0000 H   0  0  0  0  0  0  0  0  0  0  0  0
    6.9338    1.4706    0.0000 H   0  0  0  0  0  0  0  0  0  0  0  0
    5.4848    2.2923    0.0000 H   0  0  0  0  0  0  0  0  0  0  0  0
    5.4848   -1.0170    0.0000 H   0  0  0  0  0  0  0  0  0  0  0  0
    2.3291   -0.1723    0.0000 H   0  0  0  0  0  0  0  0  0  0  0  0
    3.1951   -1.6723    0.0000 H   0  0  0  0  0  0  0  0  0  0  0  0
  1  2  2  0  0  0  0
  2  3  1  0  0  0  0
  3  4  2  0  0  0  0
  4  5  1  0  0  0  0
  5  6  2  0  0  0  0
  1  6  1  0  0  0  0
  5  7  1  0  0  0  0
  7  8  2  0  0  0  0
  8  9  1  0  0  0  0
  9 10  2  0  0  0  0
  9 11  1  0  0  0  0
  4 11  1  0  0  0  0
  7 12  1  0  0  0  0
  1 13  1  0  0  0  0
  2 14  1  0  0  0  0
  3 15  1  0  0  0  0
  6 16  1  0  0  0  0
  8 17  1  0  0  0  0
 12 18  1  0  0  0  0
M  END
$$$$
