C6H12O2
APtclcactv05262212103D 0   0.00000     0.00000
 
 20 19  0  0  0  0  0  0  0  0999 V2000
    3.0193   -0.9416    0.1652 C   0  0  0  0  0  0  0  0  0  0  0  0
    1.9344    0.1194    0.3605 C   0  0  0  0  0  0  0  0  0  0  0  0
    2.2127    1.3089   -0.5606 C   0  0  0  0  0  0  0  0  0  0  0  0
    0.5681   -0.4797    0.0211 C   0  0  0  0  0  0  0  0  0  0  0  0
   -0.5282    0.5404    0.3349 C   0  0  0  0  0  0  0  0  0  0  0  0
   -1.8740   -0.0497    0.0006 C   0  0  0  0  0  0  0  0  0  0  0  0
   -2.9898    0.6704    0.1957 O   0  0  0  0  0  0  0  0  0  0  0  0
   -1.9486   -1.1711   -0.4431 O   0  0  0  0  0  0  0  0  0  0  0  0
    3.9927   -0.5148    0.4070 H   0  0  0  0  0  0  0  0  0  0  0  0
    2.8210   -1.7891    0.8214 H   0  0  0  0  0  0  0  0  0  0  0  0
    3.0171   -1.2769   -0.8720 H   0  0  0  0  0  0  0  0  0  0  0  0
    1.9366    0.4547    1.3977 H   0  0  0  0  0  0  0  0  0  0  0  0
    1.4398    2.0648   -0.4215 H   0  0  0  0  0  0  0  0  0  0  0  0
    3.1861    1.7357   -0.3188 H   0  0  0  0  0  0  0  0  0  0  0  0
    2.2105    0.9737   -1.5978 H   0  0  0  0  0  0  0  0  0  0  0  0
    0.5357   -0.7336   -1.0384 H   0  0  0  0  0  0  0  0  0  0  0  0
    0.4081   -1.3794    0.6153 H   0  0  0  0  0  0  0  0  0  0  0  0
   -0.4959    0.7942    1.3944 H   0  0  0  0  0  0  0  0  0  0  0  0
   -0.3682    1.4400   -0.2594 H   0  0  0  0  0  0  0  0  0  0  0  0
   -3.8297    0.2495   -0.0335 H   0  0  0  0  0  0  0  0  0  0  0  0
  1  2  1  0  0  0  0
  2  3  1  0  0  0  0
  2  4  1  0  0  0  0
  4  5  1  0  0  0  0
  5  6  1  0  0  0  0
  6  7  1  0  0  0  0
  6  8  2  0  0  0  0
  1  9  1  0  0  0  0
  1 10  1  0  0  0  0
  1 11  1  0  0  0  0
  2 12  1  0  0  0  0
  3 13  1  0  0  0  0
  3 14  1  0  0  0  0
  3 15  1  0  0  0  0
  4 16  1  0  0  0  0
  4 17  1  0  0  0  0
  5 18  1  0  0  0  0
  5 19  1  0  0  0  0
  7 20  1  0  0  0  0
M  END
$$$$
