C8H14O2
APtclcactv05262212113D 0   0.00000     0.00000
 
 24 23  0  0  0  0  0  0  0  0999 V2000
   -2.4718    1.1535   -0.7882 C   0  0  0  0  0  0  0  0  0  0  0  0
   -2.4382    0.0487    0.2697 C   0  0  0  0  0  0  0  0  0  0  0  0
   -3.7738   -0.6977    0.2703 C   0  0  0  0  0  0  0  0  0  0  0  0
   -1.3070   -0.9303   -0.0509 C   0  0  0  0  0  0  0  0  0  0  0  0
    0.0184   -0.2231    0.0689 C   0  0  0  0  0  0  0  0  0  0  0  0
    0.0545    0.9435    0.3788 O   0  0  0  0  0  0  0  0  0  0  0  0
    1.2988   -0.9717   -0.1980 C   0  0  0  0  0  0  0  0  0  0  0  0
    2.4715   -0.0439   -0.0112 C   0  0  0  0  0  0  0  0  0  0  0  0
    3.8749   -0.5518   -0.2202 C   0  0  0  0  0  0  0  0  0  0  0  0
    2.2867    1.1066    0.3059 O   0  0  0  0  0  0  0  0  0  0  0  0
   -1.5203    1.6853   -0.7885 H   0  0  0  0  0  0  0  0  0  0  0  0
   -2.6413    0.7114   -1.7700 H   0  0  0  0  0  0  0  0  0  0  0  0
   -3.2777    1.8509   -0.5597 H   0  0  0  0  0  0  0  0  0  0  0  0
   -2.2687    0.4908    1.2515 H   0  0  0  0  0  0  0  0  0  0  0  0
   -3.9433   -1.1398   -0.7115 H   0  0  0  0  0  0  0  0  0  0  0  0
   -3.7498   -1.4848    1.0239 H   0  0  0  0  0  0  0  0  0  0  0  0
   -4.5797   -0.0003    0.4987 H   0  0  0  0  0  0  0  0  0  0  0  0
   -1.3385   -1.7642    0.6502 H   0  0  0  0  0  0  0  0  0  0  0  0
   -1.4281   -1.3052   -1.0672 H   0  0  0  0  0  0  0  0  0  0  0  0
    1.3825   -1.8075    0.4966 H   0  0  0  0  0  0  0  0  0  0  0  0
    1.2929   -1.3485   -1.2208 H   0  0  0  0  0  0  0  0  0  0  0  0
    3.8423   -1.6047   -0.4999 H   0  0  0  0  0  0  0  0  0  0  0  0
    4.3538    0.0206   -1.0146 H   0  0  0  0  0  0  0  0  0  0  0  0
    4.4435   -0.4384    0.7028 H   0  0  0  0  0  0  0  0  0  0  0  0
  1  2  1  0  0  0  0
  2  3  1  0  0  0  0
  2  4  1  0  0  0  0
  4  5  1  0  0  0  0
  5  6  2  0  0  0  0
  5  7  1  0  0  0  0
  7  8  1  0  0  0  0
  8  9  1  0  0  0  0
  8 10  2  0  0  0  0
  1 11  1  0  0  0  0
  1 12  1  0  0  0  0
  1 13  1  0  0  0  0
  2 14  1  0  0  0  0
  3 15  1  0  0  0  0
  3 16  1  0  0  0  0
  3 17  1  0  0  0  0
  4 18  1  0  0  0  0
  4 19  1  0  0  0  0
  7 20  1  0  0  0  0
  7 21  1  0  0  0  0
  9 22  1  0  0  0  0
  9 23  1  0  0  0  0
  9 24  1  0  0  0  0
M  END
$$$$
