C8H8O
APtclcactv05262212103D 0   0.00000     0.00000
 
 17 17  0  0  0  0  0  0  0  0999 V2000
    2.4844    1.1665   -0.0013 C   0  0  0  0  0  0  0  0  0  0  0  0
    1.6746   -0.1045   -0.0005 C   0  0  0  0  0  0  0  0  0  0  0  0
    2.2345   -1.1801    0.0002 O   0  0  0  0  0  0  0  0  0  0  0  0
    0.2044   -0.0403   -0.0005 C   0  0  0  0  0  0  0  0  0  0  0  0
   -0.5506   -1.2176    0.0003 C   0  0  0  0  0  0  0  0  0  0  0  0
   -1.9277   -1.1491    0.0002 C   0  0  0  0  0  0  0  0  0  0  0  0
   -2.5631    0.0805   -0.0011 C   0  0  0  0  0  0  0  0  0  0  0  0
   -1.8230    1.2500   -0.0018 C   0  0  0  0  0  0  0  0  0  0  0  0
   -0.4451    1.1982    0.0045 C   0  0  0  0  0  0  0  0  0  0  0  0
    3.5463    0.9207   -0.0012 H   0  0  0  0  0  0  0  0  0  0  0  0
    2.2462    1.7484   -0.8917 H   0  0  0  0  0  0  0  0  0  0  0  0
    2.2462    1.7496    0.8883 H   0  0  0  0  0  0  0  0  0  0  0  0
   -0.0562   -2.1778    0.0006 H   0  0  0  0  0  0  0  0  0  0  0  0
   -2.5122   -2.0573    0.0009 H   0  0  0  0  0  0  0  0  0  0  0  0
   -3.6421    0.1276   -0.0018 H   0  0  0  0  0  0  0  0  0  0  0  0
   -2.3260    2.2057   -0.0028 H   0  0  0  0  0  0  0  0  0  0  0  0
    0.1311    2.1117    0.0043 H   0  0  0  0  0  0  0  0  0  0  0  0
  1  2  1  0  0  0  0
  2  3  2  0  0  0  0
  2  4  1  0  0  0  0
  4  5  1  0  0  0  0
  5  6  2  0  0  0  0
  6  7  1  0  0  0  0
  7  8  2  0  0  0  0
  8  9  1  0  0  0  0
  4  9  2  0  0  0  0
  1 10  1  0  0  0  0
  1 11  1  0  0  0  0
  1 12  1  0  0  0  0
  5 13  1  0  0  0  0
  6 14  1  0  0  0  0
  7 15  1  0  0  0  0
  8 16  1  0  0  0  0
  9 17  1  0  0  0  0
M  END
$$$$
