C11H12O2
APtclcactv05262212103D 0   0.00000     0.00000
 
 25 25  0  0  0  0  0  0  0  0999 V2000
    5.3982    0.5930    0.2647 C   0  0  0  0  0  0  0  0  0  0  0  0
    4.4483   -0.2590   -0.0321 C   0  0  0  0  0  0  0  0  0  0  0  0
    3.0642   -0.0715    0.5337 C   0  0  0  0  0  0  0  0  0  0  0  0
    2.0811   -0.2708   -0.5162 O   0  0  0  0  0  0  0  0  0  0  0  0
    0.7897   -0.1386   -0.1748 C   0  0  0  0  0  0  0  0  0  0  0  0
    0.4907    0.1347    0.9635 O   0  0  0  0  0  0  0  0  0  0  0  0
   -0.2871   -0.3311   -1.2114 C   0  0  0  0  0  0  0  0  0  0  0  0
   -1.6383   -0.1289   -0.5755 C   0  0  0  0  0  0  0  0  0  0  0  0
   -2.2093    1.1298   -0.5509 C   0  0  0  0  0  0  0  0  0  0  0  0
   -3.4487    1.3153    0.0324 C   0  0  0  0  0  0  0  0  0  0  0  0
   -4.1174    0.2420    0.5908 C   0  0  0  0  0  0  0  0  0  0  0  0
   -3.5468   -1.0168    0.5655 C   0  0  0  0  0  0  0  0  0  0  0  0
   -2.3093   -1.2031   -0.0217 C   0  0  0  0  0  0  0  0  0  0  0  0
    5.1893    1.4297    0.9148 H   0  0  0  0  0  0  0  0  0  0  0  0
    6.3913    0.4561   -0.1372 H   0  0  0  0  0  0  0  0  0  0  0  0
    4.6572   -1.0957   -0.6822 H   0  0  0  0  0  0  0  0  0  0  0  0
    2.8964   -0.7956    1.3309 H   0  0  0  0  0  0  0  0  0  0  0  0
    2.9689    0.9380    0.9337 H   0  0  0  0  0  0  0  0  0  0  0  0
   -0.1517    0.3930   -2.0148 H   0  0  0  0  0  0  0  0  0  0  0  0
   -0.2242   -1.3406   -1.6176 H   0  0  0  0  0  0  0  0  0  0  0  0
   -1.6869    1.9684   -0.9872 H   0  0  0  0  0  0  0  0  0  0  0  0
   -3.8945    2.2988    0.0522 H   0  0  0  0  0  0  0  0  0  0  0  0
   -5.0854    0.3871    1.0472 H   0  0  0  0  0  0  0  0  0  0  0  0
   -4.0691   -1.8553    1.0021 H   0  0  0  0  0  0  0  0  0  0  0  0
   -1.8636   -2.1866   -0.0415 H   0  0  0  0  0  0  0  0  0  0  0  0
  1  2  2  0  0  0  0
  2  3  1  0  0  0  0
  3  4  1  0  0  0  0
  4  5  1  0  0  0  0
  5  6  2  0  0  0  0
  5  7  1  0  0  0  0
  7  8  1  0  0  0  0
  8  9  1  0  0  0  0
  9 10  2  0  0  0  0
 10 11  1  0  0  0  0
 11 12  2  0  0  0  0
 12 13  1  0  0  0  0
  8 13  2  0  0  0  0
  1 14  1  0  0  0  0
  1 15  1  0  0  0  0
  2 16  1  0  0  0  0
  3 17  1  0  0  0  0
  3 18  1  0  0  0  0
  7 19  1  0  0  0  0
  7 20  1  0  0  0  0
  9 21  1  0  0  0  0
 10 22  1  0  0  0  0
 11 23  1  0  0  0  0
 12 24  1  0  0  0  0
 13 25  1  0  0  0  0
M  END
$$$$
