C9H10
APtclcactv05262212103D 0   0.00000     0.00000
 
 19 19  0  0  0  0  0  0  0  0999 V2000
    3.3773    0.4658   -0.5033 C   0  0  0  0  0  0  0  0  0  0  0  0
    2.3623   -0.3586   -0.4240 C   0  0  0  0  0  0  0  0  0  0  0  0
    1.4866   -0.3599    0.8024 C   0  0  0  0  0  0  0  0  0  0  0  0
    0.0508   -0.1519    0.3947 C   0  0  0  0  0  0  0  0  0  0  0  0
   -0.7500   -1.2407    0.1048 C   0  0  0  0  0  0  0  0  0  0  0  0
   -2.0671   -1.0499   -0.2692 C   0  0  0  0  0  0  0  0  0  0  0  0
   -2.5834    0.2297   -0.3529 C   0  0  0  0  0  0  0  0  0  0  0  0
   -1.7828    1.3184   -0.0622 C   0  0  0  0  0  0  0  0  0  0  0  0
   -0.4670    1.1274    0.3161 C   0  0  0  0  0  0  0  0  0  0  0  0
    3.5865    1.1445    0.3104 H   0  0  0  0  0  0  0  0  0  0  0  0
    4.0075    0.4637   -1.3803 H   0  0  0  0  0  0  0  0  0  0  0  0
    2.1531   -1.0373   -1.2377 H   0  0  0  0  0  0  0  0  0  0  0  0
    1.5834   -1.3159    1.3169 H   0  0  0  0  0  0  0  0  0  0  0  0
    1.7950    0.4448    1.4699 H   0  0  0  0  0  0  0  0  0  0  0  0
   -0.3467   -2.2404    0.1702 H   0  0  0  0  0  0  0  0  0  0  0  0
   -2.6926   -1.9005   -0.4964 H   0  0  0  0  0  0  0  0  0  0  0  0
   -3.6122    0.3788   -0.6458 H   0  0  0  0  0  0  0  0  0  0  0  0
   -2.1861    2.3181   -0.1279 H   0  0  0  0  0  0  0  0  0  0  0  0
    0.1585    1.9780    0.5433 H   0  0  0  0  0  0  0  0  0  0  0  0
  1  2  2  0  0  0  0
  2  3  1  0  0  0  0
  3  4  1  0  0  0  0
  4  5  2  0  0  0  0
  5  6  1  0  0  0  0
  6  7  2  0  0  0  0
  7  8  1  0  0  0  0
  8  9  2  0  0  0  0
  4  9  1  0  0  0  0
  1 10  1  0  0  0  0
  1 11  1  0  0  0  0
  2 12  1  0  0  0  0
  3 13  1  0  0  0  0
  3 14  1  0  0  0  0
  5 15  1  0  0  0  0
  6 16  1  0  0  0  0
  7 17  1  0  0  0  0
  8 18  1  0  0  0  0
  9 19  1  0  0  0  0
M  END
$$$$
