C12H20O2
APtclcactv05262212113D 0   0.00000     0.00000
 
 34 34  0  0  0  0  0  0  0  0999 V2000
    3.4200    2.0422    0.4584 C   0  0  0  0  0  0  0  0  0  0  0  0
    2.7946    0.7042    0.1586 C   0  0  0  0  0  0  0  0  0  0  0  0
    3.4959   -0.2577   -0.0482 O   0  0  0  0  0  0  0  0  0  0  0  0
    1.4585    0.5811    0.1214 O   0  0  0  0  0  0  0  0  0  0  0  0
    0.9259   -0.7372   -0.1733 C   0  0  0  0  0  0  0  0  0  0  0  0
    1.4190   -1.1906   -1.5488 C   0  0  0  0  0  0  0  0  0  0  0  0
    1.4007   -1.7286    0.8910 C   0  0  0  0  0  0  0  0  0  0  0  0
   -0.6030   -0.6814   -0.1725 C   0  0  0  0  0  0  0  0  0  0  0  0
   -1.1017   -0.2271    1.2052 C   0  0  0  0  0  0  0  0  0  0  0  0
   -2.6266   -0.3517    1.2331 C   0  0  0  0  0  0  0  0  0  0  0  0
   -3.2207    0.2983    0.0180 C   0  0  0  0  0  0  0  0  0  0  0  0
   -2.5496    0.5903   -1.0496 C   0  0  0  0  0  0  0  0  0  0  0  0
   -1.0815    0.3287   -1.2176 C   0  0  0  0  0  0  0  0  0  0  0  0
   -4.6903    0.6314    0.0421 C   0  0  0  0  0  0  0  0  0  0  0  0
    3.5783    2.5860   -0.4729 H   0  0  0  0  0  0  0  0  0  0  0  0
    2.7572    2.6161    1.1061 H   0  0  0  0  0  0  0  0  0  0  0  0
    4.3767    1.8922    0.9587 H   0  0  0  0  0  0  0  0  0  0  0  0
    2.5083   -1.2303   -1.5494 H   0  0  0  0  0  0  0  0  0  0  0  0
    1.0192   -2.1802   -1.7700 H   0  0  0  0  0  0  0  0  0  0  0  0
    1.0808   -0.4843   -2.3070 H   0  0  0  0  0  0  0  0  0  0  0  0
    1.0494   -1.4056    1.8710 H   0  0  0  0  0  0  0  0  0  0  0  0
    1.0009   -2.7182    0.6698 H   0  0  0  0  0  0  0  0  0  0  0  0
    2.4899   -1.7683    0.8904 H   0  0  0  0  0  0  0  0  0  0  0  0
   -1.0058   -1.6682   -0.4008 H   0  0  0  0  0  0  0  0  0  0  0  0
   -0.6681   -0.8606    1.9790 H   0  0  0  0  0  0  0  0  0  0  0  0
   -0.8158    0.8110    1.3743 H   0  0  0  0  0  0  0  0  0  0  0  0
   -2.9027   -1.4060    1.2504 H   0  0  0  0  0  0  0  0  0  0  0  0
   -3.0126    0.1354    2.1286 H   0  0  0  0  0  0  0  0  0  0  0  0
   -3.0792    1.0504   -1.8707 H   0  0  0  0  0  0  0  0  0  0  0  0
   -0.5319    1.2622   -1.0960 H   0  0  0  0  0  0  0  0  0  0  0  0
   -0.8973   -0.0692   -2.2155 H   0  0  0  0  0  0  0  0  0  0  0  0
   -4.8283    1.6378    0.4375 H   0  0  0  0  0  0  0  0  0  0  0  0
   -5.0909    0.5807   -0.9704 H   0  0  0  0  0  0  0  0  0  0  0  0
   -5.2145   -0.0833    0.6765 H   0  0  0  0  0  0  0  0  0  0  0  0
  1  2  1  0  0  0  0
  2  3  2  0  0  0  0
  2  4  1  0  0  0  0
  4  5  1  0  0  0  0
  5  6  1  0  0  0  0
  5  7  1  0  0  0  0
  5  8  1  0  0  0  0
  8  9  1  0  0  0  0
  9 10  1  0  0  0  0
 10 11  1  0  0  0  0
 11 12  2  0  0  0  0
 12 13  1  0  0  0  0
  8 13  1  0  0  0  0
 11 14  1  0  0  0  0
  1 15  1  0  0  0  0
  1 16  1  0  0  0  0
  1 17  1  0  0  0  0
  6 18  1  0  0  0  0
  6 19  1  0  0  0  0
  6 20  1  0  0  0  0
  7 21  1  0  0  0  0
  7 22  1  0  0  0  0
  7 23  1  0  0  0  0
  8 24  1  0  0  0  0
  9 25  1  0  0  0  0
  9 26  1  0  0  0  0
 10 27  1  0  0  0  0
 10 28  1  0  0  0  0
 12 29  1  0  0  0  0
 13 30  1  0  0  0  0
 13 31  1  0  0  0  0
 14 32  1  0  0  0  0
 14 33  1  0  0  0  0
 14 34  1  0  0  0  0
M  END
$$$$
