C13H20O
APtclcactv05262212242D 0   0.00000     0.00000
 
 34 34  0  0  0  0  0  0  0  0999 V2000
    5.5981    2.5000    0.0000 C   0  0  0  0  0  0  0  0  0  0  0  0
    4.7321    2.0000    0.0000 C   0  0  0  0  0  0  0  0  0  0  0  0
    3.8660    2.5000    0.0000 O   0  0  0  0  0  0  0  0  0  0  0  0
    4.7321    1.0000    0.0000 C   0  0  0  0  0  0  0  0  0  0  0  0
    3.8660    0.5000    0.0000 C   0  0  0  0  0  0  0  0  0  0  0  0
    3.8660   -0.5000    0.0000 C   0  0  0  0  0  0  0  0  0  0  0  0
    4.7321   -1.0000    0.0000 C   0  0  0  0  0  0  0  0  0  0  0  0
    4.7321   -2.0000    0.0000 C   0  0  0  0  0  0  0  0  0  0  0  0
    3.8660   -2.5000    0.0000 C   0  0  0  0  0  0  0  0  0  0  0  0
    3.0000   -2.0000    0.0000 C   0  0  0  0  0  0  0  0  0  0  0  0
    3.0000   -1.0000    0.0000 C   0  0  0  0  0  0  0  0  0  0  0  0
    2.0000   -1.0000    0.0000 C   0  0  0  0  0  0  0  0  0  0  0  0
    2.5000   -0.1340    0.0000 C   0  0  0  0  0  0  0  0  0  0  0  0
    5.5981   -0.5000    0.0000 C   0  0  0  0  0  0  0  0  0  0  0  0
    5.9081    1.9631    0.0000 H   0  0  0  0  0  0  0  0  0  0  0  0
    6.1350    2.8100    0.0000 H   0  0  0  0  0  0  0  0  0  0  0  0
    5.2881    3.0369    0.0000 H   0  0  0  0  0  0  0  0  0  0  0  0
    5.2690    0.6900    0.0000 H   0  0  0  0  0  0  0  0  0  0  0  0
    3.3291    0.8100    0.0000 H   0  0  0  0  0  0  0  0  0  0  0  0
    4.4030   -0.1900    0.0000 H   0  0  0  0  0  0  0  0  0  0  0  0
    5.2690   -2.3100    0.0000 H   0  0  0  0  0  0  0  0  0  0  0  0
    3.4675   -2.9749    0.0000 H   0  0  0  0  0  0  0  0  0  0  0  0
    4.2646   -2.9749    0.0000 H   0  0  0  0  0  0  0  0  0  0  0  0
    2.3894   -1.8923    0.0000 H   0  0  0  0  0  0  0  0  0  0  0  0
    2.7879   -2.5826    0.0000 H   0  0  0  0  0  0  0  0  0  0  0  0
    2.0000   -0.3800    0.0000 H   0  0  0  0  0  0  0  0  0  0  0  0
    1.3800   -1.0000    0.0000 H   0  0  0  0  0  0  0  0  0  0  0  0
    2.0000   -1.6200    0.0000 H   0  0  0  0  0  0  0  0  0  0  0  0
    3.0369    0.1760    0.0000 H   0  0  0  0  0  0  0  0  0  0  0  0
    2.1900    0.4030    0.0000 H   0  0  0  0  0  0  0  0  0  0  0  0
    1.9631   -0.4440    0.0000 H   0  0  0  0  0  0  0  0  0  0  0  0
    5.9081   -1.0369    0.0000 H   0  0  0  0  0  0  0  0  0  0  0  0
    6.1350   -0.1900    0.0000 H   0  0  0  0  0  0  0  0  0  0  0  0
    5.2881    0.0369    0.0000 H   0  0  0  0  0  0  0  0  0  0  0  0
  1  2  1  0  0  0  0
  2  3  2  0  0  0  0
  2  4  1  0  0  0  0
  4  5  2  0  0  0  0
  5  6  1  0  0  0  0
  6  7  1  0  0  0  0
  7  8  2  0  0  0  0
  8  9  1  0  0  0  0
  9 10  1  0  0  0  0
 10 11  1  0  0  0  0
  6 11  1  0  0  0  0
 11 12  1  0  0  0  0
 11 13  1  0  0  0  0
  7 14  1  0  0  0  0
  1 15  1  0  0  0  0
  1 16  1  0  0  0  0
  1 17  1  0  0  0  0
  4 18  1  0  0  0  0
  5 19  1  0  0  0  0
  6 20  1  0  0  0  0
  8 21  1  0  0  0  0
  9 22  1  0  0  0  0
  9 23  1  0  0  0  0
 10 24  1  0  0  0  0
 10 25  1  0  0  0  0
 12 26  1  0  0  0  0
 12 27  1  0  0  0  0
 12 28  1  0  0  0  0
 13 29  1  0  0  0  0
 13 30  1  0  0  0  0
 13 31  1  0  0  0  0
 14 32  1  0  0  0  0
 14 33  1  0  0  0  0
 14 34  1  0  0  0  0
M  END
$$$$
