C9H18O2
APtclcactv05262212103D 0   0.00000     0.00000
 
 29 28  0  0  0  0  0  0  0  0999 V2000
    5.7435   -0.2657   -0.0000 C   0  0  0  0  0  0  0  0  0  0  0  0
    4.4833    0.6019    0.0000 C   0  0  0  0  0  0  0  0  0  0  0  0
    3.2452   -0.2970   -0.0000 C   0  0  0  0  0  0  0  0  0  0  0  0
    1.9850    0.5706    0.0000 C   0  0  0  0  0  0  0  0  0  0  0  0
    0.7469   -0.3283   -0.0000 C   0  0  0  0  0  0  0  0  0  0  0  0
   -0.4490    0.4951   -0.0000 O   0  0  0  0  0  0  0  0  0  0  0  0
   -1.6292   -0.1444   -0.0000 C   0  0  0  0  0  0  0  0  0  0  0  0
   -1.6618   -1.3522    0.0000 O   0  0  0  0  0  0  0  0  0  0  0  0
   -2.9135    0.6440   -0.0000 C   0  0  0  0  0  0  0  0  0  0  0  0
   -4.1028   -0.3184    0.0000 C   0  0  0  0  0  0  0  0  0  0  0  0
   -5.4067    0.4820   -0.0000 C   0  0  0  0  0  0  0  0  0  0  0  0
    6.6255    0.3747    0.0000 H   0  0  0  0  0  0  0  0  0  0  0  0
    5.7514   -0.8949    0.8900 H   0  0  0  0  0  0  0  0  0  0  0  0
    5.7514   -0.8949   -0.8900 H   0  0  0  0  0  0  0  0  0  0  0  0
    4.4754    1.2312    0.8900 H   0  0  0  0  0  0  0  0  0  0  0  0
    4.4754    1.2312   -0.8900 H   0  0  0  0  0  0  0  0  0  0  0  0
    3.2531   -0.9262   -0.8900 H   0  0  0  0  0  0  0  0  0  0  0  0
    3.2531   -0.9262    0.8900 H   0  0  0  0  0  0  0  0  0  0  0  0
    1.9771    1.1999    0.8900 H   0  0  0  0  0  0  0  0  0  0  0  0
    1.9771    1.1999   -0.8900 H   0  0  0  0  0  0  0  0  0  0  0  0
    0.7548   -0.9575   -0.8900 H   0  0  0  0  0  0  0  0  0  0  0  0
    0.7548   -0.9575    0.8900 H   0  0  0  0  0  0  0  0  0  0  0  0
   -2.9543    1.2720    0.8900 H   0  0  0  0  0  0  0  0  0  0  0  0
   -2.9543    1.2720   -0.8900 H   0  0  0  0  0  0  0  0  0  0  0  0
   -4.0620   -0.9464   -0.8900 H   0  0  0  0  0  0  0  0  0  0  0  0
   -4.0620   -0.9464    0.8900 H   0  0  0  0  0  0  0  0  0  0  0  0
   -5.4475    1.1100    0.8900 H   0  0  0  0  0  0  0  0  0  0  0  0
   -5.4475    1.1100   -0.8900 H   0  0  0  0  0  0  0  0  0  0  0  0
   -6.2540   -0.2037    0.0000 H   0  0  0  0  0  0  0  0  0  0  0  0
  1  2  1  0  0  0  0
  2  3  1  0  0  0  0
  3  4  1  0  0  0  0
  4  5  1  0  0  0  0
  5  6  1  0  0  0  0
  6  7  1  0  0  0  0
  7  8  2  0  0  0  0
  7  9  1  0  0  0  0
  9 10  1  0  0  0  0
 10 11  1  0  0  0  0
  1 12  1  0  0  0  0
  1 13  1  0  0  0  0
  1 14  1  0  0  0  0
  2 15  1  0  0  0  0
  2 16  1  0  0  0  0
  3 17  1  0  0  0  0
  3 18  1  0  0  0  0
  4 19  1  0  0  0  0
  4 20  1  0  0  0  0
  5 21  1  0  0  0  0
  5 22  1  0  0  0  0
  9 23  1  0  0  0  0
  9 24  1  0  0  0  0
 10 25  1  0  0  0  0
 10 26  1  0  0  0  0
 11 27  1  0  0  0  0
 11 28  1  0  0  0  0
 11 29  1  0  0  0  0
M  END
$$$$
