C15H22O
APtclcactv05262212242D 0   0.00000     0.00000
 
 38 39  0  0  1  0  0  0  0  0999 V2000
    6.3465   -1.5346    0.0000 C   0  0  0  0  0  0  0  0  0  0  0  0
    6.3580   -0.5347    0.0000 C   0  0  2  0  0  0  0  0  0  0  0  0
    6.8920   -0.8499    0.0000 H   0  0  0  0  0  0  0  0  0  0  0  0
    7.2641   -0.0208    0.0000 C   0  0  0  0  0  0  0  0  0  0  0  0
    7.2641    1.0208    0.0000 C   0  0  0  0  0  0  0  0  0  0  0  0
    8.1282    1.5241    0.0000 O   0  0  0  0  0  0  0  0  0  0  0  0
    6.3580    1.5346    0.0000 C   0  0  0  0  0  0  0  0  0  0  0  0
    5.4641    1.0000    0.0000 C   0  0  0  0  0  0  0  0  0  0  0  0
    5.4641   -0.0000    0.0000 C   0  0  1  0  0  0  0  0  0  0  0  0
    4.5981   -0.5000    0.0000 C   0  0  0  0  0  0  0  0  0  0  0  0
    3.7321   -0.0000    0.0000 C   0  0  1  0  0  0  0  0  0  0  0  0
    3.7321   -0.6200    0.0000 H   0  0  0  0  0  0  0  0  0  0  0  0
    3.7321    1.0000    0.0000 C   0  0  0  0  0  0  0  0  0  0  0  0
    4.5981    1.5000    0.0000 C   0  0  0  0  0  0  0  0  0  0  0  0
    2.8660   -0.5000    0.0000 C   0  0  0  0  0  0  0  0  0  0  0  0
    2.8660   -1.5000    0.0000 C   0  0  0  0  0  0  0  0  0  0  0  0
    2.0000   -0.0000    0.0000 C   0  0  0  0  0  0  0  0  0  0  0  0
    5.4641   -1.0000    0.0000 C   0  0  0  0  0  0  0  0  0  0  0  0
    5.7265   -1.5275    0.0000 H   0  0  0  0  0  0  0  0  0  0  0  0
    6.3393   -2.1546    0.0000 H   0  0  0  0  0  0  0  0  0  0  0  0
    6.9664   -1.5418    0.0000 H   0  0  0  0  0  0  0  0  0  0  0  0
    7.4732   -0.6045    0.0000 H   0  0  0  0  0  0  0  0  0  0  0  0
    7.8750    0.0852    0.0000 H   0  0  0  0  0  0  0  0  0  0  0  0
    6.3509    2.1546    0.0000 H   0  0  0  0  0  0  0  0  0  0  0  0
    4.1995   -0.9750    0.0000 H   0  0  0  0  0  0  0  0  0  0  0  0
    4.9966   -0.9750    0.0000 H   0  0  0  0  0  0  0  0  0  0  0  0
    3.5200    1.5826    0.0000 H   0  0  0  0  0  0  0  0  0  0  0  0
    3.1215    0.8923    0.0000 H   0  0  0  0  0  0  0  0  0  0  0  0
    4.9966    1.9749    0.0000 H   0  0  0  0  0  0  0  0  0  0  0  0
    4.1995    1.9749    0.0000 H   0  0  0  0  0  0  0  0  0  0  0  0
    2.3291   -1.8100    0.0000 H   0  0  0  0  0  0  0  0  0  0  0  0
    3.4030   -1.8100    0.0000 H   0  0  0  0  0  0  0  0  0  0  0  0
    2.3100    0.5369    0.0000 H   0  0  0  0  0  0  0  0  0  0  0  0
    1.4631    0.3100    0.0000 H   0  0  0  0  0  0  0  0  0  0  0  0
    1.6900   -0.5370    0.0000 H   0  0  0  0  0  0  0  0  0  0  0  0
    4.8441   -1.0000    0.0000 H   0  0  0  0  0  0  0  0  0  0  0  0
    5.4641   -1.6200    0.0000 H   0  0  0  0  0  0  0  0  0  0  0  0
    6.0841   -1.0000    0.0000 H   0  0  0  0  0  0  0  0  0  0  0  0
  2  1  1  1  0  0  0
  2  3  1  0  0  0  0
  2  4  1  0  0  0  0
  4  5  1  0  0  0  0
  5  6  2  0  0  0  0
  5  7  1  0  0  0  0
  7  8  2  0  0  0  0
  8  9  1  0  0  0  0
  2  9  1  0  0  0  0
  9 10  1  0  0  0  0
 10 11  1  0  0  0  0
 11 12  1  0  0  0  0
 11 13  1  0  0  0  0
 13 14  1  0  0  0  0
  8 14  1  0  0  0  0
 11 15  1  6  0  0  0
 15 16  2  0  0  0  0
 15 17  1  0  0  0  0
  9 18  1  1  0  0  0
  1 19  1  0  0  0  0
  1 20  1  0  0  0  0
  1 21  1  0  0  0  0
  4 22  1  0  0  0  0
  4 23  1  0  0  0  0
  7 24  1  0  0  0  0
 10 25  1  0  0  0  0
 10 26  1  0  0  0  0
 13 27  1  0  0  0  0
 13 28  1  0  0  0  0
 14 29  1  0  0  0  0
 14 30  1  0  0  0  0
 16 31  1  0  0  0  0
 16 32  1  0  0  0  0
 17 33  1  0  0  0  0
 17 34  1  0  0  0  0
 17 35  1  0  0  0  0
 18 36  1  0  0  0  0
 18 37  1  0  0  0  0
 18 38  1  0  0  0  0
M  END
$$$$
