C11H22O2
APtclcactv05262212103D 0   0.00000     0.00000
 
 35 34  0  0  0  0  0  0  0  0999 V2000
    6.7943    0.3471    0.0000 C   0  0  0  0  0  0  0  0  0  0  0  0
    5.4921   -0.4561   -0.0000 C   0  0  0  0  0  0  0  0  0  0  0  0
    4.3007    0.5039    0.0000 C   0  0  0  0  0  0  0  0  0  0  0  0
    2.9985   -0.2993   -0.0000 C   0  0  0  0  0  0  0  0  0  0  0  0
    1.8072    0.6608   -0.0000 C   0  0  0  0  0  0  0  0  0  0  0  0
    0.5245   -0.1304   -0.0000 C   0  0  0  0  0  0  0  0  0  0  0  0
    0.5596   -1.3381   -0.0000 O   0  0  0  0  0  0  0  0  0  0  0  0
   -0.6570    0.5067   -0.0000 O   0  0  0  0  0  0  0  0  0  0  0  0
   -1.8512   -0.3192    0.0000 C   0  0  0  0  0  0  0  0  0  0  0  0
   -3.0911    0.5772   -0.0000 C   0  0  0  0  0  0  0  0  0  0  0  0
   -4.3495   -0.2931    0.0000 C   0  0  0  0  0  0  0  0  0  0  0  0
   -5.5895    0.6033   -0.0000 C   0  0  0  0  0  0  0  0  0  0  0  0
   -6.8479   -0.2670    0.0000 C   0  0  0  0  0  0  0  0  0  0  0  0
    6.8338    0.9752    0.8900 H   0  0  0  0  0  0  0  0  0  0  0  0
    7.6430   -0.3368    0.0000 H   0  0  0  0  0  0  0  0  0  0  0  0
    6.8338    0.9752   -0.8900 H   0  0  0  0  0  0  0  0  0  0  0  0
    5.4526   -1.0842   -0.8900 H   0  0  0  0  0  0  0  0  0  0  0  0
    5.4526   -1.0842    0.8900 H   0  0  0  0  0  0  0  0  0  0  0  0
    4.3402    1.1320    0.8900 H   0  0  0  0  0  0  0  0  0  0  0  0
    4.3402    1.1320   -0.8900 H   0  0  0  0  0  0  0  0  0  0  0  0
    2.9590   -0.9273   -0.8900 H   0  0  0  0  0  0  0  0  0  0  0  0
    2.9590   -0.9273    0.8900 H   0  0  0  0  0  0  0  0  0  0  0  0
    1.8467    1.2888    0.8900 H   0  0  0  0  0  0  0  0  0  0  0  0
    1.8467    1.2888   -0.8900 H   0  0  0  0  0  0  0  0  0  0  0  0
   -1.8578   -0.9485   -0.8900 H   0  0  0  0  0  0  0  0  0  0  0  0
   -1.8578   -0.9485    0.8900 H   0  0  0  0  0  0  0  0  0  0  0  0
   -3.0846    1.2065    0.8900 H   0  0  0  0  0  0  0  0  0  0  0  0
   -3.0846    1.2065   -0.8900 H   0  0  0  0  0  0  0  0  0  0  0  0
   -4.3561   -0.9223   -0.8900 H   0  0  0  0  0  0  0  0  0  0  0  0
   -4.3561   -0.9223    0.8900 H   0  0  0  0  0  0  0  0  0  0  0  0
   -5.5829    1.2326    0.8900 H   0  0  0  0  0  0  0  0  0  0  0  0
   -5.5829    1.2326   -0.8900 H   0  0  0  0  0  0  0  0  0  0  0  0
   -6.8545   -0.8962    0.8900 H   0  0  0  0  0  0  0  0  0  0  0  0
   -7.7312    0.3716    0.0000 H   0  0  0  0  0  0  0  0  0  0  0  0
   -6.8545   -0.8962   -0.8900 H   0  0  0  0  0  0  0  0  0  0  0  0
  1  2  1  0  0  0  0
  2  3  1  0  0  0  0
  3  4  1  0  0  0  0
  4  5  1  0  0  0  0
  5  6  1  0  0  0  0
  6  7  2  0  0  0  0
  6  8  1  0  0  0  0
  8  9  1  0  0  0  0
  9 10  1  0  0  0  0
 10 11  1  0  0  0  0
 11 12  1  0  0  0  0
 12 13  1  0  0  0  0
  1 14  1  0  0  0  0
  1 15  1  0  0  0  0
  1 16  1  0  0  0  0
  2 17  1  0  0  0  0
  2 18  1  0  0  0  0
  3 19  1  0  0  0  0
  3 20  1  0  0  0  0
  4 21  1  0  0  0  0
  4 22  1  0  0  0  0
  5 23  1  0  0  0  0
  5 24  1  0  0  0  0
  9 25  1  0  0  0  0
  9 26  1  0  0  0  0
 10 27  1  0  0  0  0
 10 28  1  0  0  0  0
 11 29  1  0  0  0  0
 11 30  1  0  0  0  0
 12 31  1  0  0  0  0
 12 32  1  0  0  0  0
 13 33  1  0  0  0  0
 13 34  1  0  0  0  0
 13 35  1  0  0  0  0
M  END
$$$$
