C19H28O
APtclcactv05262212242D 0   0.00000     0.00000
 
 48 51  0  0  1  0  0  0  0  0999 V2000
    7.3931    2.0491    0.0000 C   0  0  0  0  0  0  0  0  0  0  0  0
    7.3931    1.0491    0.0000 C   0  0  2  0  0  0  0  0  0  0  0  0
    6.5271    1.5491    0.0000 C   0  0  0  0  0  0  0  0  0  0  0  0
    5.6610    1.0491    0.0000 C   0  0  0  0  0  0  0  0  0  0  0  0
    5.6610    0.0491    0.0000 C   0  0  1  0  0  0  0  0  0  0  0  0
    6.3972    0.4741    0.0000 H   0  0  0  0  0  0  0  0  0  0  0  0
    6.5271   -0.4509    0.0000 C   0  0  1  0  0  0  0  0  0  0  0  0
    7.2664   -0.8702    0.0000 H   0  0  0  0  0  0  0  0  0  0  0  0
    6.5431   -1.4924    0.0000 C   0  0  0  0  0  0  0  0  0  0  0  0
    5.6451   -2.0202    0.0000 C   0  0  0  0  0  0  0  0  0  0  0  0
    4.7430   -1.4994    0.0000 C   0  0  1  0  0  0  0  0  0  0  0  0
    4.7463   -2.3494    0.0000 H   0  0  0  0  0  0  0  0  0  0  0  0
    3.8076   -2.0491    0.0000 C   0  0  0  0  0  0  0  0  0  0  0  0
    2.8679   -1.5066    0.0000 C   0  0  0  0  0  0  0  0  0  0  0  0
    2.0000   -2.0032    0.0000 O   0  0  0  0  0  0  0  0  0  0  0  0
    2.8763   -0.4216    0.0000 C   0  0  0  0  0  0  0  0  0  0  0  0
    3.8242    0.1063    0.0000 C   0  0  0  0  0  0  0  0  0  0  0  0
    4.7510   -0.4578    0.0000 C   0  0  2  0  0  0  0  0  0  0  0  0
    4.7587    0.5422    0.0000 C   0  0  0  0  0  0  0  0  0  0  0  0
    7.3931    0.0491    0.0000 C   0  0  2  0  0  0  0  0  0  0  0  0
    7.4830   -0.7961    0.0000 H   0  0  0  0  0  0  0  0  0  0  0  0
    8.3393   -0.2556    0.0000 C   0  0  0  0  0  0  0  0  0  0  0  0
    8.9229    0.5491    0.0000 C   0  0  0  0  0  0  0  0  0  0  0  0
    8.3393    1.3538    0.0000 C   0  0  0  0  0  0  0  0  0  0  0  0
    8.0131    2.0491    0.0000 H   0  0  0  0  0  0  0  0  0  0  0  0
    7.3931    2.6691    0.0000 H   0  0  0  0  0  0  0  0  0  0  0  0
    6.7731    2.0491    0.0000 H   0  0  0  0  0  0  0  0  0  0  0  0
    6.9256    2.0240    0.0000 H   0  0  0  0  0  0  0  0  0  0  0  0
    6.1285    2.0240    0.0000 H   0  0  0  0  0  0  0  0  0  0  0  0
    5.4490    1.6317    0.0000 H   0  0  0  0  0  0  0  0  0  0  0  0
    5.0505    0.9414    0.0000 H   0  0  0  0  0  0  0  0  0  0  0  0
    6.7611   -2.0728    0.0000 H   0  0  0  0  0  0  0  0  0  0  0  0
    7.1523   -1.3769    0.0000 H   0  0  0  0  0  0  0  0  0  0  0  0
    5.2478   -2.4961    0.0000 H   0  0  0  0  0  0  0  0  0  0  0  0
    6.0460   -2.4931    0.0000 H   0  0  0  0  0  0  0  0  0  0  0  0
    3.4103   -2.5251    0.0000 H   0  0  0  0  0  0  0  0  0  0  0  0
    4.2085   -2.5220    0.0000 H   0  0  0  0  0  0  0  0  0  0  0  0
    2.6718    0.1637    0.0000 H   0  0  0  0  0  0  0  0  0  0  0  0
    2.2647   -0.5230    0.0000 H   0  0  0  0  0  0  0  0  0  0  0  0
    4.2324    0.5730    0.0000 H   0  0  0  0  0  0  0  0  0  0  0  0
    3.4343    0.5884    0.0000 H   0  0  0  0  0  0  0  0  0  0  0  0
    5.3787    0.5374    0.0000 H   0  0  0  0  0  0  0  0  0  0  0  0
    4.7635    1.1622    0.0000 H   0  0  0  0  0  0  0  0  0  0  0  0
    4.1388    0.5470    0.0000 H   0  0  0  0  0  0  0  0  0  0  0  0
    8.0883   -0.8226    0.0000 H   0  0  0  0  0  0  0  0  0  0  0  0
    8.8767   -0.5649    0.0000 H   0  0  0  0  0  0  0  0  0  0  0  0
    9.5429    0.5491    0.0000 H   0  0  0  0  0  0  0  0  0  0  0  0
    8.5319    1.9431    0.0000 H   0  0  0  0  0  0  0  0  0  0  0  0
  2  1  1  1  0  0  0
  2  3  1  0  0  0  0
  3  4  1  0  0  0  0
  4  5  1  0  0  0  0
  5  6  1  6  0  0  0
  5  7  1  0  0  0  0
  7  8  1  1  0  0  0
  7  9  1  0  0  0  0
  9 10  1  0  0  0  0
 10 11  1  0  0  0  0
 11 12  1  6  0  0  0
 11 13  1  0  0  0  0
 13 14  1  0  0  0  0
 14 15  2  0  0  0  0
 14 16  1  0  0  0  0
 16 17  1  0  0  0  0
 17 18  1  0  0  0  0
  5 18  1  0  0  0  0
 11 18  1  0  0  0  0
 18 19  1  1  0  0  0
  7 20  1  0  0  0  0
 20 21  1  6  0  0  0
  2 20  1  0  0  0  0
 20 22  1  0  0  0  0
 22 23  1  0  0  0  0
 23 24  2  0  0  0  0
  2 24  1  0  0  0  0
  1 25  1  0  0  0  0
  1 26  1  0  0  0  0
  1 27  1  0  0  0  0
  3 28  1  0  0  0  0
  3 29  1  0  0  0  0
  4 30  1  0  0  0  0
  4 31  1  0  0  0  0
  9 32  1  0  0  0  0
  9 33  1  0  0  0  0
 10 34  1  0  0  0  0
 10 35  1  0  0  0  0
 13 36  1  0  0  0  0
 13 37  1  0  0  0  0
 16 38  1  0  0  0  0
 16 39  1  0  0  0  0
 17 40  1  0  0  0  0
 17 41  1  0  0  0  0
 19 42  1  0  0  0  0
 19 43  1  0  0  0  0
 19 44  1  0  0  0  0
 22 45  1  0  0  0  0
 22 46  1  0  0  0  0
 23 47  1  0  0  0  0
 24 48  1  0  0  0  0
M  END
$$$$
