C14H12O3
APtclcactv05262212103D 0   0.00000     0.00000
 
 29 30  0  0  0  0  0  0  0  0999 V2000
   -5.1394   -0.9386   -0.0120 C   0  0  0  0  0  0  0  0  0  0  0  0
   -4.5439   -0.6017    1.1891 C   0  0  0  0  0  0  0  0  0  0  0  0
   -3.3499    0.0948    1.1972 C   0  0  0  0  0  0  0  0  0  0  0  0
   -2.7511    0.4540    0.0042 C   0  0  0  0  0  0  0  0  0  0  0  0
   -3.3462    0.1164   -1.1970 C   0  0  0  0  0  0  0  0  0  0  0  0
   -4.5409   -0.5789   -1.2051 C   0  0  0  0  0  0  0  0  0  0  0  0
   -1.4499    1.2142    0.0130 C   0  0  0  0  0  0  0  0  0  0  0  0
   -0.3414    0.2764    0.0066 O   0  0  0  0  0  0  0  0  0  0  0  0
    0.9011    0.7978    0.0132 C   0  0  0  0  0  0  0  0  0  0  0  0
    1.0541    2.0032    0.0241 O   0  0  0  0  0  0  0  0  0  0  0  0
    2.0747   -0.0941    0.0072 C   0  0  0  0  0  0  0  0  0  0  0  0
    1.9035   -1.4807   -0.0053 C   0  0  0  0  0  0  0  0  0  0  0  0
    3.0050   -2.3089   -0.0113 C   0  0  0  0  0  0  0  0  0  0  0  0
    4.2824   -1.7732   -0.0045 C   0  0  0  0  0  0  0  0  0  0  0  0
    4.4662   -0.4046    0.0084 C   0  0  0  0  0  0  0  0  0  0  0  0
    3.3696    0.4442    0.0082 C   0  0  0  0  0  0  0  0  0  0  0  0
    3.5486    1.7886    0.0208 O   0  0  0  0  0  0  0  0  0  0  0  0
   -6.0700   -1.4866   -0.0184 H   0  0  0  0  0  0  0  0  0  0  0  0
   -5.0117   -0.8823    2.1212 H   0  0  0  0  0  0  0  0  0  0  0  0
   -2.8850    0.3586    2.1357 H   0  0  0  0  0  0  0  0  0  0  0  0
   -2.8788    0.3976   -2.1291 H   0  0  0  0  0  0  0  0  0  0  0  0
   -5.0060   -0.8424   -2.1435 H   0  0  0  0  0  0  0  0  0  0  0  0
   -1.3940    1.8490   -0.8713 H   0  0  0  0  0  0  0  0  0  0  0  0
   -1.3969    1.8333    0.9086 H   0  0  0  0  0  0  0  0  0  0  0  0
    0.9095   -1.9029   -0.0099 H   0  0  0  0  0  0  0  0  0  0  0  0
    2.8717   -3.3806   -0.0210 H   0  0  0  0  0  0  0  0  0  0  0  0
    5.1398   -2.4299   -0.0089 H   0  0  0  0  0  0  0  0  0  0  0  0
    5.4654    0.0053    0.0139 H   0  0  0  0  0  0  0  0  0  0  0  0
    3.6064    2.1860   -0.8589 H   0  0  0  0  0  0  0  0  0  0  0  0
  1  2  2  0  0  0  0
  2  3  1  0  0  0  0
  3  4  2  0  0  0  0
  4  5  1  0  0  0  0
  5  6  2  0  0  0  0
  1  6  1  0  0  0  0
  4  7  1  0  0  0  0
  7  8  1  0  0  0  0
  8  9  1  0  0  0  0
  9 10  2  0  0  0  0
  9 11  1  0  0  0  0
 11 12  2  0  0  0  0
 12 13  1  0  0  0  0
 13 14  2  0  0  0  0
 14 15  1  0  0  0  0
 15 16  2  0  0  0  0
 11 16  1  0  0  0  0
 16 17  1  0  0  0  0
  1 18  1  0  0  0  0
  2 19  1  0  0  0  0
  3 20  1  0  0  0  0
  5 21  1  0  0  0  0
  6 22  1  0  0  0  0
  7 23  1  0  0  0  0
  7 24  1  0  0  0  0
 12 25  1  0  0  0  0
 13 26  1  0  0  0  0
 14 27  1  0  0  0  0
 15 28  1  0  0  0  0
 17 29  1  0  0  0  0
M  END
$$$$
