C13H10O
APtclcactv05262212103D 0   0.00000     0.00000
 
 24 25  0  0  0  0  0  0  0  0999 V2000
   -0.0282   -2.3227   -0.2408 O   0  0  0  0  0  0  0  0  0  0  0  0
   -0.0135   -1.1140   -0.1128 C   0  0  0  0  0  0  0  0  0  0  0  0
    1.2744   -0.3914   -0.0695 C   0  0  0  0  0  0  0  0  0  0  0  0
    2.3945   -0.9881    0.5139 C   0  0  0  0  0  0  0  0  0  0  0  0
    3.5937   -0.3077    0.5509 C   0  0  0  0  0  0  0  0  0  0  0  0
    3.6886    0.9634    0.0121 C   0  0  0  0  0  0  0  0  0  0  0  0
    2.5828    1.5609   -0.5671 C   0  0  0  0  0  0  0  0  0  0  0  0
    1.3791    0.8894   -0.6170 C   0  0  0  0  0  0  0  0  0  0  0  0
   -1.2837   -0.3669   -0.0067 C   0  0  0  0  0  0  0  0  0  0  0  0
   -2.5013   -1.0206   -0.2098 C   0  0  0  0  0  0  0  0  0  0  0  0
   -3.6832   -0.3169   -0.1092 C   0  0  0  0  0  0  0  0  0  0  0  0
   -3.6647    1.0338    0.1916 C   0  0  0  0  0  0  0  0  0  0  0  0
   -2.4620    1.6879    0.3936 C   0  0  0  0  0  0  0  0  0  0  0  0
   -1.2728    0.9952    0.3027 C   0  0  0  0  0  0  0  0  0  0  0  0
    2.3216   -1.9798    0.9354 H   0  0  0  0  0  0  0  0  0  0  0  0
    4.4605   -0.7679    1.0017 H   0  0  0  0  0  0  0  0  0  0  0  0
    4.6300    1.4918    0.0441 H   0  0  0  0  0  0  0  0  0  0  0  0
    2.6638    2.5535   -0.9850 H   0  0  0  0  0  0  0  0  0  0  0  0
    0.5169    1.3568   -1.0693 H   0  0  0  0  0  0  0  0  0  0  0  0
   -2.5172   -2.0744   -0.4453 H   0  0  0  0  0  0  0  0  0  0  0  0
   -4.6254   -0.8210   -0.2659 H   0  0  0  0  0  0  0  0  0  0  0  0
   -4.5932    1.5801    0.2688 H   0  0  0  0  0  0  0  0  0  0  0  0
   -2.4548    2.7423    0.6273 H   0  0  0  0  0  0  0  0  0  0  0  0
   -0.3349    1.5069    0.4606 H   0  0  0  0  0  0  0  0  0  0  0  0
  1  2  2  0  0  0  0
  2  3  1  0  0  0  0
  3  4  1  0  0  0  0
  4  5  2  0  0  0  0
  5  6  1  0  0  0  0
  6  7  2  0  0  0  0
  7  8  1  0  0  0  0
  3  8  2  0  0  0  0
  2  9  1  0  0  0  0
  9 10  1  0  0  0  0
 10 11  2  0  0  0  0
 11 12  1  0  0  0  0
 12 13  2  0  0  0  0
 13 14  1  0  0  0  0
  9 14  2  0  0  0  0
  4 15  1  0  0  0  0
  5 16  1  0  0  0  0
  6 17  1  0  0  0  0
  7 18  1  0  0  0  0
  8 19  1  0  0  0  0
 10 20  1  0  0  0  0
 11 21  1  0  0  0  0
 12 22  1  0  0  0  0
 13 23  1  0  0  0  0
 14 24  1  0  0  0  0
M  END
$$$$
