C9H10O2
APtclcactv05262212103D 0   0.00000     0.00000
 
 21 21  0  0  0  0  0  0  0  0999 V2000
    3.7131   -0.0058   -1.2811 C   0  0  0  0  0  0  0  0  0  0  0  0
    2.7545   -0.0004   -0.1183 C   0  0  0  0  0  0  0  0  0  0  0  0
    3.1777    0.0048    1.0134 O   0  0  0  0  0  0  0  0  0  0  0  0
    1.4307   -0.0015   -0.3397 O   0  0  0  0  0  0  0  0  0  0  0  0
    0.5670    0.0038    0.8275 C   0  0  0  0  0  0  0  0  0  0  0  0
   -0.8739    0.0017    0.3863 C   0  0  0  0  0  0  0  0  0  0  0  0
   -1.5348   -1.1964    0.1894 C   0  0  0  0  0  0  0  0  0  0  0  0
   -2.8565   -1.1983   -0.2154 C   0  0  0  0  0  0  0  0  0  0  0  0
   -3.5176   -0.0021   -0.4229 C   0  0  0  0  0  0  0  0  0  0  0  0
   -2.8570    1.1960   -0.2252 C   0  0  0  0  0  0  0  0  0  0  0  0
   -1.5365    1.1979    0.1838 C   0  0  0  0  0  0  0  0  0  0  0  0
    4.7372   -0.0040   -0.9079 H   0  0  0  0  0  0  0  0  0  0  0  0
    3.5477   -0.8985   -1.8842 H   0  0  0  0  0  0  0  0  0  0  0  0
    3.5476    0.8814   -1.8924 H   0  0  0  0  0  0  0  0  0  0  0  0
    0.7640   -0.8834    1.4293 H   0  0  0  0  0  0  0  0  0  0  0  0
    0.7640    0.8966    1.4211 H   0  0  0  0  0  0  0  0  0  0  0  0
   -1.0183   -2.1309    0.3515 H   0  0  0  0  0  0  0  0  0  0  0  0
   -3.3726   -2.1343   -0.3699 H   0  0  0  0  0  0  0  0  0  0  0  0
   -4.5500   -0.0036   -0.7398 H   0  0  0  0  0  0  0  0  0  0  0  0
   -3.3734    2.1306   -0.3876 H   0  0  0  0  0  0  0  0  0  0  0  0
   -1.0204    2.1340    0.3383 H   0  0  0  0  0  0  0  0  0  0  0  0
  1  2  1  0  0  0  0
  2  3  2  0  0  0  0
  2  4  1  0  0  0  0
  4  5  1  0  0  0  0
  5  6  1  0  0  0  0
  6  7  1  0  0  0  0
  7  8  2  0  0  0  0
  8  9  1  0  0  0  0
  9 10  2  0  0  0  0
 10 11  1  0  0  0  0
  6 11  2  0  0  0  0
  1 12  1  0  0  0  0
  1 13  1  0  0  0  0
  1 14  1  0  0  0  0
  5 15  1  0  0  0  0
  5 16  1  0  0  0  0
  7 17  1  0  0  0  0
  8 18  1  0  0  0  0
  9 19  1  0  0  0  0
 10 20  1  0  0  0  0
 11 21  1  0  0  0  0
M  END
$$$$
