C13H24O
APtclcactv05262212242D 0   0.00000     0.00000
 
 38 38  0  0  1  0  0  0  0  0999 V2000
    9.3693    0.0861    0.0000 C   0  0  0  0  0  0  0  0  0  0  0  0
    8.4182   -0.2229    0.0000 C   0  0  0  0  0  0  0  0  0  0  0  0
    8.1092   -1.1739    0.0000 C   0  0  0  0  0  0  0  0  0  0  0  0
    7.1092   -1.1739    0.0000 C   0  0  0  0  0  0  0  0  0  0  0  0
    6.8002   -0.2229    0.0000 C   0  0  1  0  0  0  0  0  0  0  0  0
    6.7032    0.3895    0.0000 H   0  0  0  0  0  0  0  0  0  0  0  0
    7.6092    0.3649    0.0000 C   0  0  0  0  0  0  0  0  0  0  0  0
    8.1970    1.1739    0.0000 C   0  0  0  0  0  0  0  0  0  0  0  0
    7.0214    1.1739    0.0000 C   0  0  0  0  0  0  0  0  0  0  0  0
    5.8492    0.0861    0.0000 C   0  0  0  0  0  0  0  0  0  0  0  0
    5.1060   -0.5830    0.0000 C   0  0  0  0  0  0  0  0  0  0  0  0
    4.1550   -0.2740    0.0000 C   0  0  2  0  0  0  0  0  0  0  0  0
    4.6157    0.1409    0.0000 H   0  0  0  0  0  0  0  0  0  0  0  0
    3.9470    0.7042    0.0000 C   0  0  0  0  0  0  0  0  0  0  0  0
    3.4118   -0.9431    0.0000 C   0  0  0  0  0  0  0  0  0  0  0  0
    2.4607   -0.6341    0.0000 O   0  0  0  0  0  0  0  0  0  0  0  0
    9.5609   -0.5035    0.0000 H   0  0  0  0  0  0  0  0  0  0  0  0
    9.9590    0.2777    0.0000 H   0  0  0  0  0  0  0  0  0  0  0  0
    9.1777    0.6758    0.0000 H   0  0  0  0  0  0  0  0  0  0  0  0
    8.4737   -1.6755    0.0000 H   0  0  0  0  0  0  0  0  0  0  0  0
    6.5028   -1.3028    0.0000 H   0  0  0  0  0  0  0  0  0  0  0  0
    7.1740   -1.7905    0.0000 H   0  0  0  0  0  0  0  0  0  0  0  0
    8.6986    0.8095    0.0000 H   0  0  0  0  0  0  0  0  0  0  0  0
    8.5614    1.6755    0.0000 H   0  0  0  0  0  0  0  0  0  0  0  0
    7.6954    1.5384    0.0000 H   0  0  0  0  0  0  0  0  0  0  0  0
    7.5230    1.5384    0.0000 H   0  0  0  0  0  0  0  0  0  0  0  0
    6.6570    1.6755    0.0000 H   0  0  0  0  0  0  0  0  0  0  0  0
    6.5198    0.8095    0.0000 H   0  0  0  0  0  0  0  0  0  0  0  0
    6.1402    0.6336    0.0000 H   0  0  0  0  0  0  0  0  0  0  0  0
    5.3606    0.4679    0.0000 H   0  0  0  0  0  0  0  0  0  0  0  0
    4.8149   -1.1304    0.0000 H   0  0  0  0  0  0  0  0  0  0  0  0
    5.5946   -0.9647    0.0000 H   0  0  0  0  0  0  0  0  0  0  0  0
    4.5535    0.8331    0.0000 H   0  0  0  0  0  0  0  0  0  0  0  0
    3.8181    1.3106    0.0000 H   0  0  0  0  0  0  0  0  0  0  0  0
    3.3406    0.5753    0.0000 H   0  0  0  0  0  0  0  0  0  0  0  0
    3.1207   -1.4905    0.0000 H   0  0  0  0  0  0  0  0  0  0  0  0
    3.9004   -1.3248    0.0000 H   0  0  0  0  0  0  0  0  0  0  0  0
    2.0000   -1.0489    0.0000 H   0  0  0  0  0  0  0  0  0  0  0  0
  1  2  1  0  0  0  0
  2  3  2  0  0  0  0
  3  4  1  0  0  0  0
  4  5  1  0  0  0  0
  5  6  1  0  0  0  0
  5  7  1  0  0  0  0
  2  7  1  0  0  0  0
  7  8  1  0  0  0  0
  7  9  1  0  0  0  0
  5 10  1  6  0  0  0
 10 11  1  0  0  0  0
 11 12  1  0  0  0  0
 12 13  1  0  0  0  0
 12 14  1  1  0  0  0
 12 15  1  0  0  0  0
 15 16  1  0  0  0  0
  1 17  1  0  0  0  0
  1 18  1  0  0  0  0
  1 19  1  0  0  0  0
  3 20  1  0  0  0  0
  4 21  1  0  0  0  0
  4 22  1  0  0  0  0
  8 23  1  0  0  0  0
  8 24  1  0  0  0  0
  8 25  1  0  0  0  0
  9 26  1  0  0  0  0
  9 27  1  0  0  0  0
  9 28  1  0  0  0  0
 10 29  1  0  0  0  0
 10 30  1  0  0  0  0
 11 31  1  0  0  0  0
 11 32  1  0  0  0  0
 14 33  1  0  0  0  0
 14 34  1  0  0  0  0
 14 35  1  0  0  0  0
 15 36  1  0  0  0  0
 15 37  1  0  0  0  0
 16 38  1  0  0  0  0
M  END
$$$$
