C11H15NO2
APtclcactv05262212113D 0   0.00000     0.00000
 
 29 29  0  0  0  0  0  0  0  0999 V2000
    5.8859   -0.7840    0.0733 C   0  0  0  0  0  0  0  0  0  0  0  0
    4.7407    0.2281    0.0017 C   0  0  0  0  0  0  0  0  0  0  0  0
    3.4024   -0.5127    0.0373 C   0  0  0  0  0  0  0  0  0  0  0  0
    2.2572    0.4994   -0.0343 C   0  0  0  0  0  0  0  0  0  0  0  0
    0.9872   -0.2036   -0.0004 O   0  0  0  0  0  0  0  0  0  0  0  0
   -0.1299    0.5482   -0.0556 C   0  0  0  0  0  0  0  0  0  0  0  0
   -0.0449    1.7582   -0.1301 O   0  0  0  0  0  0  0  0  0  0  0  0
   -1.4538   -0.0966   -0.0258 C   0  0  0  0  0  0  0  0  0  0  0  0
   -1.5586   -1.4901   -0.0640 C   0  0  0  0  0  0  0  0  0  0  0  0
   -2.7995   -2.0867   -0.0358 C   0  0  0  0  0  0  0  0  0  0  0  0
   -3.9478   -1.3128    0.0297 C   0  0  0  0  0  0  0  0  0  0  0  0
   -3.8617    0.0635    0.0681 C   0  0  0  0  0  0  0  0  0  0  0  0
   -2.6185    0.6841    0.0469 C   0  0  0  0  0  0  0  0  0  0  0  0
   -2.5292    2.0690    0.0854 N   0  0  0  0  0  0  0  0  0  0  0  0
    6.8393   -0.2563    0.0479 H   0  0  0  0  0  0  0  0  0  0  0  0
    5.8103   -1.3533    0.9997 H   0  0  0  0  0  0  0  0  0  0  0  0
    5.8239   -1.4635   -0.7768 H   0  0  0  0  0  0  0  0  0  0  0  0
    4.8026    0.9076    0.8517 H   0  0  0  0  0  0  0  0  0  0  0  0
    4.8163    0.7974   -0.9248 H   0  0  0  0  0  0  0  0  0  0  0  0
    3.3405   -1.1921   -0.8127 H   0  0  0  0  0  0  0  0  0  0  0  0
    3.3268   -1.0819    0.9638 H   0  0  0  0  0  0  0  0  0  0  0  0
    2.3192    1.1789    0.8158 H   0  0  0  0  0  0  0  0  0  0  0  0
    2.3328    1.0687   -0.9607 H   0  0  0  0  0  0  0  0  0  0  0  0
   -0.6675   -2.0981   -0.1158 H   0  0  0  0  0  0  0  0  0  0  0  0
   -2.8786   -3.1634   -0.0654 H   0  0  0  0  0  0  0  0  0  0  0  0
   -4.9162   -1.7905    0.0506 H   0  0  0  0  0  0  0  0  0  0  0  0
   -4.7612    0.6591    0.1191 H   0  0  0  0  0  0  0  0  0  0  0  0
   -3.3295    2.6035    0.2066 H   0  0  0  0  0  0  0  0  0  0  0  0
   -1.6664    2.5021   -0.0089 H   0  0  0  0  0  0  0  0  0  0  0  0
  1  2  1  0  0  0  0
  2  3  1  0  0  0  0
  3  4  1  0  0  0  0
  4  5  1  0  0  0  0
  5  6  1  0  0  0  0
  6  7  2  0  0  0  0
  6  8  1  0  0  0  0
  8  9  1  0  0  0  0
  9 10  2  0  0  0  0
 10 11  1  0  0  0  0
 11 12  2  0  0  0  0
 12 13  1  0  0  0  0
  8 13  2  0  0  0  0
 13 14  1  0  0  0  0
  1 15  1  0  0  0  0
  1 16  1  0  0  0  0
  1 17  1  0  0  0  0
  2 18  1  0  0  0  0
  2 19  1  0  0  0  0
  3 20  1  0  0  0  0
  3 21  1  0  0  0  0
  4 22  1  0  0  0  0
  4 23  1  0  0  0  0
  9 24  1  0  0  0  0
 10 25  1  0  0  0  0
 11 26  1  0  0  0  0
 12 27  1  0  0  0  0
 14 28  1  0  0  0  0
 14 29  1  0  0  0  0
M  END
$$$$
