C10H20O2
APtclcactv05262212103D 0   0.00000     0.00000
 
 32 31  0  0  0  0  0  0  0  0999 V2000
    6.7247   -0.2331   -0.0000 C   0  0  0  0  0  0  0  0  0  0  0  0
    5.4326    0.5862    0.0000 C   0  0  0  0  0  0  0  0  0  0  0  0
    4.2294   -0.3588   -0.0000 C   0  0  0  0  0  0  0  0  0  0  0  0
    2.9373    0.4605    0.0000 C   0  0  0  0  0  0  0  0  0  0  0  0
    1.7341   -0.4846   -0.0000 C   0  0  0  0  0  0  0  0  0  0  0  0
    0.4420    0.3348    0.0000 C   0  0  0  0  0  0  0  0  0  0  0  0
   -0.7612   -0.6103   -0.0000 C   0  0  0  0  0  0  0  0  0  0  0  0
   -2.0533    0.2091    0.0000 C   0  0  0  0  0  0  0  0  0  0  0  0
   -3.2565   -0.7360    0.0000 C   0  0  0  0  0  0  0  0  0  0  0  0
   -4.5292    0.0711   -0.0000 C   0  0  0  0  0  0  0  0  0  0  0  0
   -5.7185   -0.5512    0.0000 O   0  0  0  0  0  0  0  0  0  0  0  0
   -4.4790    1.2783   -0.0000 O   0  0  0  0  0  0  0  0  0  0  0  0
    6.7564   -0.8616    0.8900 H   0  0  0  0  0  0  0  0  0  0  0  0
    6.7564   -0.8616   -0.8900 H   0  0  0  0  0  0  0  0  0  0  0  0
    7.5819    0.4402    0.0000 H   0  0  0  0  0  0  0  0  0  0  0  0
    5.4010    1.2148    0.8900 H   0  0  0  0  0  0  0  0  0  0  0  0
    5.4010    1.2148   -0.8900 H   0  0  0  0  0  0  0  0  0  0  0  0
    4.2611   -0.9874   -0.8900 H   0  0  0  0  0  0  0  0  0  0  0  0
    4.2611   -0.9874    0.8900 H   0  0  0  0  0  0  0  0  0  0  0  0
    2.9056    1.0890    0.8900 H   0  0  0  0  0  0  0  0  0  0  0  0
    2.9056    1.0890   -0.8900 H   0  0  0  0  0  0  0  0  0  0  0  0
    1.7658   -1.1131   -0.8900 H   0  0  0  0  0  0  0  0  0  0  0  0
    1.7658   -1.1131    0.8900 H   0  0  0  0  0  0  0  0  0  0  0  0
    0.4103    0.9633    0.8900 H   0  0  0  0  0  0  0  0  0  0  0  0
    0.4103    0.9633   -0.8900 H   0  0  0  0  0  0  0  0  0  0  0  0
   -0.7295   -1.2388   -0.8900 H   0  0  0  0  0  0  0  0  0  0  0  0
   -0.7295   -1.2388    0.8900 H   0  0  0  0  0  0  0  0  0  0  0  0
   -2.0850    0.8376    0.8900 H   0  0  0  0  0  0  0  0  0  0  0  0
   -2.0850    0.8376   -0.8900 H   0  0  0  0  0  0  0  0  0  0  0  0
   -3.2249   -1.3645   -0.8900 H   0  0  0  0  0  0  0  0  0  0  0  0
   -3.2249   -1.3645    0.8900 H   0  0  0  0  0  0  0  0  0  0  0  0
   -6.5070    0.0087   -0.0000 H   0  0  0  0  0  0  0  0  0  0  0  0
  1  2  1  0  0  0  0
  2  3  1  0  0  0  0
  3  4  1  0  0  0  0
  4  5  1  0  0  0  0
  5  6  1  0  0  0  0
  6  7  1  0  0  0  0
  7  8  1  0  0  0  0
  8  9  1  0  0  0  0
  9 10  1  0  0  0  0
 10 11  1  0  0  0  0
 10 12  2  0  0  0  0
  1 13  1  0  0  0  0
  1 14  1  0  0  0  0
  1 15  1  0  0  0  0
  2 16  1  0  0  0  0
  2 17  1  0  0  0  0
  3 18  1  0  0  0  0
  3 19  1  0  0  0  0
  4 20  1  0  0  0  0
  4 21  1  0  0  0  0
  5 22  1  0  0  0  0
  5 23  1  0  0  0  0
  6 24  1  0  0  0  0
  6 25  1  0  0  0  0
  7 26  1  0  0  0  0
  7 27  1  0  0  0  0
  8 28  1  0  0  0  0
  8 29  1  0  0  0  0
  9 30  1  0  0  0  0
  9 31  1  0  0  0  0
 11 32  1  0  0  0  0
M  END
$$$$
