C17H28O2
APtclcactv05262212242D 0   0.00000     0.00000
 
 47 49  0  0  1  0  0  0  0  0999 V2000
    4.6286   -2.4324    0.0000 C   0  0  0  0  0  0  0  0  0  0  0  0
    3.9070   -1.7401    0.0000 C   0  0  2  0  0  0  0  0  0  0  0  0
    3.7279   -2.3337    0.0000 H   0  0  0  0  0  0  0  0  0  0  0  0
    2.9288   -1.9168    0.0000 C   0  0  0  0  0  0  0  0  0  0  0  0
    2.4569   -1.0418    0.0000 C   0  0  0  0  0  0  0  0  0  0  0  0
    3.1420   -0.3215    0.0000 C   0  0  2  0  0  0  0  0  0  0  0  0
    2.3762    0.0473    0.0000 H   0  0  0  0  0  0  0  0  0  0  0  0
    4.0430   -0.7554    0.0000 C   0  0  2  0  0  0  0  0  0  0  0  0
    4.9440   -0.3215    0.0000 C   0  0  0  0  0  0  0  0  0  0  0  0
    5.1665    0.6534    0.0000 C   0  0  0  0  0  0  0  0  0  0  0  0
    4.5430    1.4352    0.0000 C   0  0  1  0  0  0  0  0  0  0  0  0
    3.5430    1.4352    0.0000 C   0  0  2  0  0  0  0  0  0  0  0  0
    3.3539    2.2639    0.0000 H   0  0  0  0  0  0  0  0  0  0  0  0
    4.1499    0.4214    0.0000 C   0  0  0  0  0  0  0  0  0  0  0  0
    2.9195    0.6534    0.0000 C   0  0  0  0  0  0  0  0  0  0  0  0
    2.2616    1.4065    0.0000 C   0  0  0  0  0  0  0  0  0  0  0  0
    2.0000    0.2604    0.0000 C   0  0  0  0  0  0  0  0  0  0  0  0
    4.4683    2.4324    0.0000 C   0  0  0  0  0  0  0  0  0  0  0  0
    5.3693    1.9986    0.0000 O   0  0  0  0  0  0  0  0  0  0  0  0
    6.2702    1.5647    0.0000 C   0  0  0  0  0  0  0  0  0  0  0  0
    6.3450    0.5675    0.0000 O   0  0  0  0  0  0  0  0  0  0  0  0
    7.0965    2.1280    0.0000 C   0  0  0  0  0  0  0  0  0  0  0  0
    4.1994   -2.8798    0.0000 H   0  0  0  0  0  0  0  0  0  0  0  0
    5.0760   -2.8617    0.0000 H   0  0  0  0  0  0  0  0  0  0  0  0
    5.0579   -1.9851    0.0000 H   0  0  0  0  0  0  0  0  0  0  0  0
    2.3551   -2.1521    0.0000 H   0  0  0  0  0  0  0  0  0  0  0  0
    3.1025   -2.5120    0.0000 H   0  0  0  0  0  0  0  0  0  0  0  0
    2.0551   -0.5697    0.0000 H   0  0  0  0  0  0  0  0  0  0  0  0
    1.9452   -1.3918    0.0000 H   0  0  0  0  0  0  0  0  0  0  0  0
    5.0819   -0.9260    0.0000 H   0  0  0  0  0  0  0  0  0  0  0  0
    5.5640   -0.3215    0.0000 H   0  0  0  0  0  0  0  0  0  0  0  0
    5.7251    0.3844    0.0000 H   0  0  0  0  0  0  0  0  0  0  0  0
    5.5531    1.1381    0.0000 H   0  0  0  0  0  0  0  0  0  0  0  0
    4.7199    0.1775    0.0000 H   0  0  0  0  0  0  0  0  0  0  0  0
    4.5577    0.8884    0.0000 H   0  0  0  0  0  0  0  0  0  0  0  0
    2.7285    1.8144    0.0000 H   0  0  0  0  0  0  0  0  0  0  0  0
    1.8537    1.8734    0.0000 H   0  0  0  0  0  0  0  0  0  0  0  0
    1.7947    0.9986    0.0000 H   0  0  0  0  0  0  0  0  0  0  0  0
    1.7563    0.8305    0.0000 H   0  0  0  0  0  0  0  0  0  0  0  0
    1.4299    0.0167    0.0000 H   0  0  0  0  0  0  0  0  0  0  0  0
    2.2437   -0.3097    0.0000 H   0  0  0  0  0  0  0  0  0  0  0  0
    5.0866    2.4788    0.0000 H   0  0  0  0  0  0  0  0  0  0  0  0
    4.4220    3.0507    0.0000 H   0  0  0  0  0  0  0  0  0  0  0  0
    3.8500    2.3861    0.0000 H   0  0  0  0  0  0  0  0  0  0  0  0
    7.4457    1.6157    0.0000 H   0  0  0  0  0  0  0  0  0  0  0  0
    7.6087    2.4773    0.0000 H   0  0  0  0  0  0  0  0  0  0  0  0
    6.7472    2.6403    0.0000 H   0  0  0  0  0  0  0  0  0  0  0  0
  2  1  1  6  0  0  0
  2  3  1  0  0  0  0
  2  4  1  0  0  0  0
  4  5  1  0  0  0  0
  5  6  1  0  0  0  0
  6  7  1  6  0  0  0
  6  8  1  0  0  0  0
  2  8  1  0  0  0  0
  8  9  1  6  0  0  0
  9 10  1  0  0  0  0
 10 11  1  0  0  0  0
 11 12  1  0  0  0  0
 12 13  1  1  0  0  0
 12 14  1  0  0  0  0
  8 14  1  0  0  0  0
 12 15  1  0  0  0  0
  6 15  1  0  0  0  0
 15 16  1  0  0  0  0
 15 17  1  0  0  0  0
 11 18  1  0  0  0  0
 11 19  1  6  0  0  0
 19 20  1  0  0  0  0
 20 21  2  0  0  0  0
 20 22  1  0  0  0  0
  1 23  1  0  0  0  0
  1 24  1  0  0  0  0
  1 25  1  0  0  0  0
  4 26  1  0  0  0  0
  4 27  1  0  0  0  0
  5 28  1  0  0  0  0
  5 29  1  0  0  0  0
  9 30  1  0  0  0  0
  9 31  1  0  0  0  0
 10 32  1  0  0  0  0
 10 33  1  0  0  0  0
 14 34  1  0  0  0  0
 14 35  1  0  0  0  0
 16 36  1  0  0  0  0
 16 37  1  0  0  0  0
 16 38  1  0  0  0  0
 17 39  1  0  0  0  0
 17 40  1  0  0  0  0
 17 41  1  0  0  0  0
 18 42  1  0  0  0  0
 18 43  1  0  0  0  0
 18 44  1  0  0  0  0
 22 45  1  0  0  0  0
 22 46  1  0  0  0  0
 22 47  1  0  0  0  0
M  END
$$$$
