C9H8O
APtclcactv05262212113D 0   0.00000     0.00000
 
 18 18  0  0  0  0  0  0  0  0999 V2000
   -4.1270    0.4977    0.0005 O   0  0  0  0  0  0  0  0  0  0  0  0
   -3.2284   -0.3191   -0.0002 C   0  0  0  0  0  0  0  0  0  0  0  0
   -1.8852    0.1103    0.0005 C   0  0  0  0  0  0  0  0  0  0  0  0
   -0.8836   -0.8001   -0.0002 C   0  0  0  0  0  0  0  0  0  0  0  0
    0.5169   -0.3524    0.0005 C   0  0  0  0  0  0  0  0  0  0  0  0
    1.5553   -1.2904   -0.0002 C   0  0  0  0  0  0  0  0  0  0  0  0
    2.8658   -0.8623   -0.0000 C   0  0  0  0  0  0  0  0  0  0  0  0
    3.1556    0.4913    0.0009 C   0  0  0  0  0  0  0  0  0  0  0  0
    2.1343    1.4256    0.0017 C   0  0  0  0  0  0  0  0  0  0  0  0
    0.8185    1.0140   -0.0039 C   0  0  0  0  0  0  0  0  0  0  0  0
   -3.4579   -1.3745    0.0032 H   0  0  0  0  0  0  0  0  0  0  0  0
   -1.6557    1.1656    0.0016 H   0  0  0  0  0  0  0  0  0  0  0  0
   -1.1131   -1.8555   -0.0013 H   0  0  0  0  0  0  0  0  0  0  0  0
    1.3307   -2.3468   -0.0006 H   0  0  0  0  0  0  0  0  0  0  0  0
    3.6684   -1.5849   -0.0003 H   0  0  0  0  0  0  0  0  0  0  0  0
    4.1844    0.8201    0.0014 H   0  0  0  0  0  0  0  0  0  0  0  0
    2.3688    2.4798    0.0028 H   0  0  0  0  0  0  0  0  0  0  0  0
    0.0228    1.7442   -0.0036 H   0  0  0  0  0  0  0  0  0  0  0  0
  1  2  2  0  0  0  0
  2  3  1  0  0  0  0
  3  4  2  0  0  0  0
  4  5  1  0  0  0  0
  5  6  1  0  0  0  0
  6  7  2  0  0  0  0
  7  8  1  0  0  0  0
  8  9  2  0  0  0  0
  9 10  1  0  0  0  0
  5 10  2  0  0  0  0
  2 11  1  0  0  0  0
  3 12  1  0  0  0  0
  4 13  1  0  0  0  0
  6 14  1  0  0  0  0
  7 15  1  0  0  0  0
  8 16  1  0  0  0  0
  9 17  1  0  0  0  0
 10 18  1  0  0  0  0
M  END
$$$$
