C10H18O
APtclcactv05262212242D 0   0.00000     0.00000
 
 29 28  0  0  0  0  0  0  0  0999 V2000
    8.0622    2.5600    0.0000 C   0  0  0  0  0  0  0  0  0  0  0  0
    8.0622    1.5600    0.0000 C   0  0  0  0  0  0  0  0  0  0  0  0
    7.1962    1.0600    0.0000 C   0  0  0  0  0  0  0  0  0  0  0  0
    7.1962    0.0600    0.0000 C   0  0  0  0  0  0  0  0  0  0  0  0
    6.3301   -0.4400    0.0000 C   0  0  0  0  0  0  0  0  0  0  0  0
    6.3301   -1.4400    0.0000 C   0  0  0  0  0  0  0  0  0  0  0  0
    5.4641   -1.9400    0.0000 C   0  0  0  0  0  0  0  0  0  0  0  0
    4.5981   -1.4400    0.0000 C   0  0  0  0  0  0  0  0  0  0  0  0
    3.7321   -1.9400    0.0000 C   0  0  0  0  0  0  0  0  0  0  0  0
    2.8660   -1.4400    0.0000 C   0  0  0  0  0  0  0  0  0  0  0  0
    2.0000   -1.9400    0.0000 O   0  0  0  0  0  0  0  0  0  0  0  0
    8.6822    2.5600    0.0000 H   0  0  0  0  0  0  0  0  0  0  0  0
    8.0622    3.1800    0.0000 H   0  0  0  0  0  0  0  0  0  0  0  0
    7.4422    2.5600    0.0000 H   0  0  0  0  0  0  0  0  0  0  0  0
    8.2742    0.9774    0.0000 H   0  0  0  0  0  0  0  0  0  0  0  0
    8.6728    1.6677    0.0000 H   0  0  0  0  0  0  0  0  0  0  0  0
    6.9841    1.6426    0.0000 H   0  0  0  0  0  0  0  0  0  0  0  0
    6.5856    0.9523    0.0000 H   0  0  0  0  0  0  0  0  0  0  0  0
    7.4082   -0.5226    0.0000 H   0  0  0  0  0  0  0  0  0  0  0  0
    7.8067    0.1677    0.0000 H   0  0  0  0  0  0  0  0  0  0  0  0
    6.1181    0.1426    0.0000 H   0  0  0  0  0  0  0  0  0  0  0  0
    5.7195   -0.5477    0.0000 H   0  0  0  0  0  0  0  0  0  0  0  0
    6.8671   -1.7500    0.0000 H   0  0  0  0  0  0  0  0  0  0  0  0
    5.4641   -2.5600    0.0000 H   0  0  0  0  0  0  0  0  0  0  0  0
    4.9966   -0.9651    0.0000 H   0  0  0  0  0  0  0  0  0  0  0  0
    4.1995   -0.9651    0.0000 H   0  0  0  0  0  0  0  0  0  0  0  0
    3.3335   -2.4149    0.0000 H   0  0  0  0  0  0  0  0  0  0  0  0
    4.1306   -2.4149    0.0000 H   0  0  0  0  0  0  0  0  0  0  0  0
    2.8660   -0.8200    0.0000 H   0  0  0  0  0  0  0  0  0  0  0  0
  1  2  1  0  0  0  0
  2  3  1  0  0  0  0
  3  4  1  0  0  0  0
  4  5  1  0  0  0  0
  5  6  1  0  0  0  0
  6  7  2  0  0  0  0
  7  8  1  0  0  0  0
  8  9  1  0  0  0  0
  9 10  1  0  0  0  0
 10 11  2  0  0  0  0
  1 12  1  0  0  0  0
  1 13  1  0  0  0  0
  1 14  1  0  0  0  0
  2 15  1  0  0  0  0
  2 16  1  0  0  0  0
  3 17  1  0  0  0  0
  3 18  1  0  0  0  0
  4 19  1  0  0  0  0
  4 20  1  0  0  0  0
  5 21  1  0  0  0  0
  5 22  1  0  0  0  0
  6 23  1  0  0  0  0
  7 24  1  0  0  0  0
  8 25  1  0  0  0  0
  8 26  1  0  0  0  0
  9 27  1  0  0  0  0
  9 28  1  0  0  0  0
 10 29  1  0  0  0  0
M  END
$$$$
