C9H16O
APtclcactv05262212242D 0   0.00000     0.00000
 
 26 25  0  0  0  0  0  0  0  0999 V2000
    8.9282    1.3100    0.0000 C   0  0  0  0  0  0  0  0  0  0  0  0
    8.0622    0.8100    0.0000 C   0  0  0  0  0  0  0  0  0  0  0  0
    8.0622   -0.1900    0.0000 C   0  0  0  0  0  0  0  0  0  0  0  0
    7.1962   -0.6900    0.0000 C   0  0  0  0  0  0  0  0  0  0  0  0
    6.3301   -0.1900    0.0000 C   0  0  0  0  0  0  0  0  0  0  0  0
    5.4641   -0.6900    0.0000 C   0  0  0  0  0  0  0  0  0  0  0  0
    4.5981   -0.1900    0.0000 C   0  0  0  0  0  0  0  0  0  0  0  0
    3.7321   -0.6900    0.0000 C   0  0  0  0  0  0  0  0  0  0  0  0
    2.8660   -0.1900    0.0000 C   0  0  0  0  0  0  0  0  0  0  0  0
    2.0000   -0.6900    0.0000 O   0  0  0  0  0  0  0  0  0  0  0  0
    9.2382    0.7731    0.0000 H   0  0  0  0  0  0  0  0  0  0  0  0
    9.4651    1.6200    0.0000 H   0  0  0  0  0  0  0  0  0  0  0  0
    8.6182    1.8469    0.0000 H   0  0  0  0  0  0  0  0  0  0  0  0
    7.8501    1.3926    0.0000 H   0  0  0  0  0  0  0  0  0  0  0  0
    7.4516    0.7023    0.0000 H   0  0  0  0  0  0  0  0  0  0  0  0
    8.5991   -0.5000    0.0000 H   0  0  0  0  0  0  0  0  0  0  0  0
    7.1962   -1.3100    0.0000 H   0  0  0  0  0  0  0  0  0  0  0  0
    6.7287    0.2849    0.0000 H   0  0  0  0  0  0  0  0  0  0  0  0
    5.9316    0.2849    0.0000 H   0  0  0  0  0  0  0  0  0  0  0  0
    5.0656   -1.1649    0.0000 H   0  0  0  0  0  0  0  0  0  0  0  0
    5.8626   -1.1649    0.0000 H   0  0  0  0  0  0  0  0  0  0  0  0
    4.9966    0.2849    0.0000 H   0  0  0  0  0  0  0  0  0  0  0  0
    4.1995    0.2849    0.0000 H   0  0  0  0  0  0  0  0  0  0  0  0
    3.3335   -1.1649    0.0000 H   0  0  0  0  0  0  0  0  0  0  0  0
    4.1306   -1.1649    0.0000 H   0  0  0  0  0  0  0  0  0  0  0  0
    2.8660    0.4300    0.0000 H   0  0  0  0  0  0  0  0  0  0  0  0
  1  2  1  0  0  0  0
  2  3  1  0  0  0  0
  3  4  2  0  0  0  0
  4  5  1  0  0  0  0
  5  6  1  0  0  0  0
  6  7  1  0  0  0  0
  7  8  1  0  0  0  0
  8  9  1  0  0  0  0
  9 10  2  0  0  0  0
  1 11  1  0  0  0  0
  1 12  1  0  0  0  0
  1 13  1  0  0  0  0
  2 14  1  0  0  0  0
  2 15  1  0  0  0  0
  3 16  1  0  0  0  0
  4 17  1  0  0  0  0
  5 18  1  0  0  0  0
  5 19  1  0  0  0  0
  6 20  1  0  0  0  0
  6 21  1  0  0  0  0
  7 22  1  0  0  0  0
  7 23  1  0  0  0  0
  8 24  1  0  0  0  0
  8 25  1  0  0  0  0
  9 26  1  0  0  0  0
M  END
$$$$
