C10H16O
APtclcactv05262212113D 0   0.00000     0.00000
 
 27 26  0  0  0  0  0  0  0  0999 V2000
   -2.7486    1.5825   -0.7316 C   0  0  0  0  0  0  0  0  0  0  0  0
   -3.1600    0.3036   -0.0487 C   0  0  0  0  0  0  0  0  0  0  0  0
   -2.3202   -0.6990    0.0252 C   0  0  0  0  0  0  0  0  0  0  0  0
   -0.9037   -0.5328   -0.4616 C   0  0  0  0  0  0  0  0  0  0  0  0
    0.0681   -0.9159    0.6564 C   0  0  0  0  0  0  0  0  0  0  0  0
    1.4846   -0.7498    0.1696 C   0  0  0  0  0  0  0  0  0  0  0  0
    2.1465    0.3825    0.4166 C   0  0  0  0  0  0  0  0  0  0  0  0
    3.5213    0.5438   -0.0558 C   0  0  0  0  0  0  0  0  0  0  0  0
    4.1231    1.5731    0.1688 O   0  0  0  0  0  0  0  0  0  0  0  0
    2.1536   -1.8620   -0.5961 C   0  0  0  0  0  0  0  0  0  0  0  0
   -4.5377    0.1782    0.5492 C   0  0  0  0  0  0  0  0  0  0  0  0
   -2.4096    1.3611   -1.7436 H   0  0  0  0  0  0  0  0  0  0  0  0
   -3.5999    2.2618   -0.7740 H   0  0  0  0  0  0  0  0  0  0  0  0
   -1.9387    2.0494   -0.1710 H   0  0  0  0  0  0  0  0  0  0  0  0
   -2.6429   -1.6447    0.4350 H   0  0  0  0  0  0  0  0  0  0  0  0
   -0.7378   -1.1782   -1.3242 H   0  0  0  0  0  0  0  0  0  0  0  0
   -0.7372    0.5057   -0.7476 H   0  0  0  0  0  0  0  0  0  0  0  0
   -0.0978   -0.2705    1.5190 H   0  0  0  0  0  0  0  0  0  0  0  0
   -0.0984   -1.9545    0.9424 H   0  0  0  0  0  0  0  0  0  0  0  0
    1.6671    1.1796    0.9654 H   0  0  0  0  0  0  0  0  0  0  0  0
    4.0007   -0.2534   -0.6045 H   0  0  0  0  0  0  0  0  0  0  0  0
    1.9655   -1.7336   -1.6620 H   0  0  0  0  0  0  0  0  0  0  0  0
    3.2274   -1.8359   -0.4109 H   0  0  0  0  0  0  0  0  0  0  0  0
    1.7517   -2.8211   -0.2691 H   0  0  0  0  0  0  0  0  0  0  0  0
   -5.2246   -0.2151   -0.2002 H   0  0  0  0  0  0  0  0  0  0  0  0
   -4.5033   -0.4999    1.4019 H   0  0  0  0  0  0  0  0  0  0  0  0
   -4.8816    1.1587    0.8783 H   0  0  0  0  0  0  0  0  0  0  0  0
  1  2  1  0  0  0  0
  2  3  2  0  0  0  0
  3  4  1  0  0  0  0
  4  5  1  0  0  0  0
  5  6  1  0  0  0  0
  6  7  2  0  0  0  0
  7  8  1  0  0  0  0
  8  9  2  0  0  0  0
  6 10  1  0  0  0  0
  2 11  1  0  0  0  0
  1 12  1  0  0  0  0
  1 13  1  0  0  0  0
  1 14  1  0  0  0  0
  3 15  1  0  0  0  0
  4 16  1  0  0  0  0
  4 17  1  0  0  0  0
  5 18  1  0  0  0  0
  5 19  1  0  0  0  0
  7 20  1  0  0  0  0
  8 21  1  0  0  0  0
 10 22  1  0  0  0  0
 10 23  1  0  0  0  0
 10 24  1  0  0  0  0
 11 25  1  0  0  0  0
 11 26  1  0  0  0  0
 11 27  1  0  0  0  0
M  END
$$$$
