C9H6O2
APtclcactv05262212093D 0   0.00000     0.00000
 
 17 18  0  0  0  0  0  0  0  0999 V2000
   -3.1693    0.6938   -0.0006 O   0  0  0  0  0  0  0  0  0  0  0  0
   -2.0437    0.2290   -0.0010 C   0  0  0  0  0  0  0  0  0  0  0  0
   -0.9921    1.0626   -0.0005 O   0  0  0  0  0  0  0  0  0  0  0  0
    0.2755    0.5980   -0.0004 C   0  0  0  0  0  0  0  0  0  0  0  0
    1.3536    1.4741    0.0006 C   0  0  0  0  0  0  0  0  0  0  0  0
    2.6404    0.9779    0.0011 C   0  0  0  0  0  0  0  0  0  0  0  0
    2.8714   -0.3903    0.0001 C   0  0  0  0  0  0  0  0  0  0  0  0
    1.8258   -1.2702   -0.0009 C   0  0  0  0  0  0  0  0  0  0  0  0
    0.5135   -0.7874   -0.0009 C   0  0  0  0  0  0  0  0  0  0  0  0
   -0.6299   -1.7051   -0.0014 C   0  0  0  0  0  0  0  0  0  0  0  0
   -1.8784   -1.1731    0.0040 C   0  0  0  0  0  0  0  0  0  0  0  0
    1.1846    2.5408    0.0006 H   0  0  0  0  0  0  0  0  0  0  0  0
    3.4768    1.6613    0.0018 H   0  0  0  0  0  0  0  0  0  0  0  0
    3.8852   -0.7626   -0.0002 H   0  0  0  0  0  0  0  0  0  0  0  0
    2.0123   -2.3340   -0.0012 H   0  0  0  0  0  0  0  0  0  0  0  0
   -0.4827   -2.7750   -0.0020 H   0  0  0  0  0  0  0  0  0  0  0  0
   -2.7429   -1.8204    0.0041 H   0  0  0  0  0  0  0  0  0  0  0  0
  1  2  2  0  0  0  0
  2  3  1  0  0  0  0
  3  4  1  0  0  0  0
  4  5  1  0  0  0  0
  5  6  2  0  0  0  0
  6  7  1  0  0  0  0
  7  8  2  0  0  0  0
  8  9  1  0  0  0  0
  4  9  2  0  0  0  0
  9 10  1  0  0  0  0
 10 11  2  0  0  0  0
  2 11  1  0  0  0  0
  5 12  1  0  0  0  0
  6 13  1  0  0  0  0
  7 14  1  0  0  0  0
  8 15  1  0  0  0  0
 10 16  1  0  0  0  0
 11 17  1  0  0  0  0
M  END
$$$$
