C5H8O2
APtclcactv05262212103D 0   0.00000     0.00000
 
 15 15  0  0  0  0  0  0  0  0999 V2000
   -2.3163    0.1072    0.0987 C   0  0  0  0  0  0  0  0  0  0  0  0
   -1.2774   -0.9427   -0.3295 C   0  0  0  0  0  0  0  0  0  0  0  0
   -0.2948    0.2241   -0.5250 C   0  0  0  0  0  0  0  0  0  0  0  0
   -1.1315    0.9983    0.5072 C   0  0  0  0  0  0  0  0  0  0  0  0
    1.1056   -0.0817   -0.0599 C   0  0  0  0  0  0  0  0  0  0  0  0
    1.3625   -1.1635    0.4129 O   0  0  0  0  0  0  0  0  0  0  0  0
    2.0676    0.8478   -0.1709 O   0  0  0  0  0  0  0  0  0  0  0  0
   -2.8989    0.5084   -0.7306 H   0  0  0  0  0  0  0  0  0  0  0  0
   -2.9353   -0.2084    0.9386 H   0  0  0  0  0  0  0  0  0  0  0  0
   -0.9910   -1.6253    0.4706 H   0  0  0  0  0  0  0  0  0  0  0  0
   -1.5332   -1.4578   -1.2554 H   0  0  0  0  0  0  0  0  0  0  0  0
   -0.3248    0.6573   -1.5247 H   0  0  0  0  0  0  0  0  0  0  0  0
   -1.2695    2.0501    0.2568 H   0  0  0  0  0  0  0  0  0  0  0  0
   -0.8052    0.8464    1.5361 H   0  0  0  0  0  0  0  0  0  0  0  0
    2.9503    0.6055    0.1410 H   0  0  0  0  0  0  0  0  0  0  0  0
  1  2  1  0  0  0  0
  2  3  1  0  0  0  0
  3  4  1  0  0  0  0
  1  4  1  0  0  0  0
  3  5  1  0  0  0  0
  5  6  2  0  0  0  0
  5  7  1  0  0  0  0
  1  8  1  0  0  0  0
  1  9  1  0  0  0  0
  2 10  1  0  0  0  0
  2 11  1  0  0  0  0
  3 12  1  0  0  0  0
  4 13  1  0  0  0  0
  4 14  1  0  0  0  0
  7 15  1  0  0  0  0
M  END
$$$$
