C6H10O
APtclcactv05262212103D 0   0.00000     0.00000
 
 17 17  0  0  0  0  0  0  0  0999 V2000
   -2.1679   -0.0015    0.3208 O   0  0  0  0  0  0  0  0  0  0  0  0
   -1.0383   -0.0004   -0.1061 C   0  0  0  0  0  0  0  0  0  0  0  0
   -0.3133    1.2990   -0.3784 C   0  0  0  0  0  0  0  0  0  0  0  0
    1.0500    1.2517    0.3196 C   0  0  0  0  0  0  0  0  0  0  0  0
    1.8077    0.0011   -0.1293 C   0  0  0  0  0  0  0  0  0  0  0  0
    1.0513   -1.2514    0.3165 C   0  0  0  0  0  0  0  0  0  0  0  0
   -0.3099   -1.2983   -0.3762 C   0  0  0  0  0  0  0  0  0  0  0  0
   -0.1708    1.4206   -1.4522 H   0  0  0  0  0  0  0  0  0  0  0  0
   -0.8964    2.1326    0.0131 H   0  0  0  0  0  0  0  0  0  0  0  0
    1.6247    2.1394    0.0553 H   0  0  0  0  0  0  0  0  0  0  0  0
    0.9046    1.2207    1.3994 H   0  0  0  0  0  0  0  0  0  0  0  0
    1.8978    0.0025   -1.2156 H   0  0  0  0  0  0  0  0  0  0  0  0
    2.8027    0.0011    0.3157 H   0  0  0  0  0  0  0  0  0  0  0  0
    1.6269   -2.1378    0.0500 H   0  0  0  0  0  0  0  0  0  0  0  0
    0.9059   -1.2232    1.3963 H   0  0  0  0  0  0  0  0  0  0  0  0
   -0.8907   -2.1340    0.0142 H   0  0  0  0  0  0  0  0  0  0  0  0
   -0.1700   -1.4165   -1.4507 H   0  0  0  0  0  0  0  0  0  0  0  0
  1  2  2  0  0  0  0
  2  3  1  0  0  0  0
  3  4  1  0  0  0  0
  4  5  1  0  0  0  0
  5  6  1  0  0  0  0
  6  7  1  0  0  0  0
  2  7  1  0  0  0  0
  3  8  1  0  0  0  0
  3  9  1  0  0  0  0
  4 10  1  0  0  0  0
  4 11  1  0  0  0  0
  5 12  1  0  0  0  0
  5 13  1  0  0  0  0
  6 14  1  0  0  0  0
  6 15  1  0  0  0  0
  7 16  1  0  0  0  0
  7 17  1  0  0  0  0
M  END
$$$$
