C13H18O
APtclcactv05262212113D 0   0.00000     0.00000
 
 32 32  0  0  0  0  0  0  0  0999 V2000
    4.4612    0.1569    0.8411 C   0  0  0  0  0  0  0  0  0  0  0  0
    3.6321    0.2445   -0.4418 C   0  0  0  0  0  0  0  0  0  0  0  0
    3.9107   -0.9814   -1.3138 C   0  0  0  0  0  0  0  0  0  0  0  0
    2.1671    0.2891   -0.0912 C   0  0  0  0  0  0  0  0  0  0  0  0
    1.3989    1.3746   -0.4683 C   0  0  0  0  0  0  0  0  0  0  0  0
    0.0551    1.4155   -0.1466 C   0  0  0  0  0  0  0  0  0  0  0  0
   -0.5205    0.3707    0.5519 C   0  0  0  0  0  0  0  0  0  0  0  0
    0.2476   -0.7153    0.9283 C   0  0  0  0  0  0  0  0  0  0  0  0
    1.5904   -0.7581    0.6028 C   0  0  0  0  0  0  0  0  0  0  0  0
   -1.9852    0.4157    0.9035 C   0  0  0  0  0  0  0  0  0  0  0  0
   -2.7998   -0.2253   -0.2219 C   0  0  0  0  0  0  0  0  0  0  0  0
   -2.4525   -1.7121   -0.3197 C   0  0  0  0  0  0  0  0  0  0  0  0
   -4.2699   -0.0710    0.0714 C   0  0  0  0  0  0  0  0  0  0  0  0
   -4.9798    0.5284   -0.7000 O   0  0  0  0  0  0  0  0  0  0  0  0
    4.2627    1.0303    1.4623 H   0  0  0  0  0  0  0  0  0  0  0  0
    4.1907   -0.7466    1.3875 H   0  0  0  0  0  0  0  0  0  0  0  0
    5.5208    0.1247    0.5874 H   0  0  0  0  0  0  0  0  0  0  0  0
    3.9025    1.1481   -0.9882 H   0  0  0  0  0  0  0  0  0  0  0  0
    3.6403   -1.8850   -0.7674 H   0  0  0  0  0  0  0  0  0  0  0  0
    3.3201   -0.9190   -2.2278 H   0  0  0  0  0  0  0  0  0  0  0  0
    4.9703   -1.0136   -1.5675 H   0  0  0  0  0  0  0  0  0  0  0  0
    1.8486    2.1909   -1.0141 H   0  0  0  0  0  0  0  0  0  0  0  0
   -0.5450    2.2639   -0.4407 H   0  0  0  0  0  0  0  0  0  0  0  0
   -0.2020   -1.5314    1.4743 H   0  0  0  0  0  0  0  0  0  0  0  0
    2.1905   -1.6066    0.8968 H   0  0  0  0  0  0  0  0  0  0  0  0
   -2.1532   -0.1318    1.8309 H   0  0  0  0  0  0  0  0  0  0  0  0
   -2.2963    1.4524    1.0321 H   0  0  0  0  0  0  0  0  0  0  0  0
   -2.5642    0.2657   -1.1661 H   0  0  0  0  0  0  0  0  0  0  0  0
   -3.0329   -2.1688   -1.1215 H   0  0  0  0  0  0  0  0  0  0  0  0
   -1.3892   -1.8237   -0.5318 H   0  0  0  0  0  0  0  0  0  0  0  0
   -2.6882   -2.2032    0.6245 H   0  0  0  0  0  0  0  0  0  0  0  0
   -4.6885   -0.4965    0.9714 H   0  0  0  0  0  0  0  0  0  0  0  0
  1  2  1  0  0  0  0
  2  3  1  0  0  0  0
  2  4  1  0  0  0  0
  4  5  2  0  0  0  0
  5  6  1  0  0  0  0
  6  7  2  0  0  0  0
  7  8  1  0  0  0  0
  8  9  2  0  0  0  0
  4  9  1  0  0  0  0
  7 10  1  0  0  0  0
 10 11  1  0  0  0  0
 11 12  1  0  0  0  0
 11 13  1  0  0  0  0
 13 14  2  0  0  0  0
  1 15  1  0  0  0  0
  1 16  1  0  0  0  0
  1 17  1  0  0  0  0
  2 18  1  0  0  0  0
  3 19  1  0  0  0  0
  3 20  1  0  0  0  0
  3 21  1  0  0  0  0
  5 22  1  0  0  0  0
  6 23  1  0  0  0  0
  8 24  1  0  0  0  0
  9 25  1  0  0  0  0
 10 26  1  0  0  0  0
 10 27  1  0  0  0  0
 11 28  1  0  0  0  0
 12 29  1  0  0  0  0
 12 30  1  0  0  0  0
 12 31  1  0  0  0  0
 13 32  1  0  0  0  0
M  END
$$$$
