C10H20O
APtclcactv05262212103D 0   0.00000     0.00000
 
 31 30  0  0  0  0  0  0  0  0999 V2000
    6.2123   -0.2884   -0.1224 C   0  0  0  0  0  0  0  0  0  0  0  0
    4.9395    0.5583   -0.0589 C   0  0  0  0  0  0  0  0  0  0  0  0
    3.7160   -0.3603   -0.0450 C   0  0  0  0  0  0  0  0  0  0  0  0
    2.4433    0.4864    0.0184 C   0  0  0  0  0  0  0  0  0  0  0  0
    1.2198   -0.4322    0.0323 C   0  0  0  0  0  0  0  0  0  0  0  0
   -0.0530    0.4144    0.0958 C   0  0  0  0  0  0  0  0  0  0  0  0
   -1.2764   -0.5042    0.1097 C   0  0  0  0  0  0  0  0  0  0  0  0
   -2.5492    0.3425    0.1732 C   0  0  0  0  0  0  0  0  0  0  0  0
   -3.7727   -0.5761    0.1871 C   0  0  0  0  0  0  0  0  0  0  0  0
   -5.0263    0.2579    0.2496 C   0  0  0  0  0  0  0  0  0  0  0  0
   -5.8882    0.1159   -0.5843 O   0  0  0  0  0  0  0  0  0  0  0  0
    6.2581   -0.9414    0.7492 H   0  0  0  0  0  0  0  0  0  0  0  0
    6.2016   -0.8930   -1.0293 H   0  0  0  0  0  0  0  0  0  0  0  0
    7.0839    0.3661   -0.1323 H   0  0  0  0  0  0  0  0  0  0  0  0
    4.9502    1.1630    0.8479 H   0  0  0  0  0  0  0  0  0  0  0  0
    4.8937    1.2113   -0.9305 H   0  0  0  0  0  0  0  0  0  0  0  0
    3.7054   -0.9650   -0.9519 H   0  0  0  0  0  0  0  0  0  0  0  0
    3.7619   -1.0133    0.8265 H   0  0  0  0  0  0  0  0  0  0  0  0
    2.4539    1.0910    0.9253 H   0  0  0  0  0  0  0  0  0  0  0  0
    2.3974    1.1394   -0.8531 H   0  0  0  0  0  0  0  0  0  0  0  0
    1.2091   -1.0369   -0.8745 H   0  0  0  0  0  0  0  0  0  0  0  0
    1.2656   -1.0852    0.9039 H   0  0  0  0  0  0  0  0  0  0  0  0
   -0.0423    1.0191    1.0027 H   0  0  0  0  0  0  0  0  0  0  0  0
   -0.0988    1.0674   -0.7758 H   0  0  0  0  0  0  0  0  0  0  0  0
   -1.2871   -1.1088   -0.7972 H   0  0  0  0  0  0  0  0  0  0  0  0
   -1.2306   -1.1572    0.9813 H   0  0  0  0  0  0  0  0  0  0  0  0
   -2.5385    0.9472    1.0800 H   0  0  0  0  0  0  0  0  0  0  0  0
   -2.5951    0.9955   -0.6984 H   0  0  0  0  0  0  0  0  0  0  0  0
   -3.7834   -1.1807   -0.7198 H   0  0  0  0  0  0  0  0  0  0  0  0
   -3.7269   -1.2291    1.0586 H   0  0  0  0  0  0  0  0  0  0  0  0
   -5.1540    0.9825    1.0402 H   0  0  0  0  0  0  0  0  0  0  0  0
  1  2  1  0  0  0  0
  2  3  1  0  0  0  0
  3  4  1  0  0  0  0
  4  5  1  0  0  0  0
  5  6  1  0  0  0  0
  6  7  1  0  0  0  0
  7  8  1  0  0  0  0
  8  9  1  0  0  0  0
  9 10  1  0  0  0  0
 10 11  2  0  0  0  0
  1 12  1  0  0  0  0
  1 13  1  0  0  0  0
  1 14  1  0  0  0  0
  2 15  1  0  0  0  0
  2 16  1  0  0  0  0
  3 17  1  0  0  0  0
  3 18  1  0  0  0  0
  4 19  1  0  0  0  0
  4 20  1  0  0  0  0
  5 21  1  0  0  0  0
  5 22  1  0  0  0  0
  6 23  1  0  0  0  0
  6 24  1  0  0  0  0
  7 25  1  0  0  0  0
  7 26  1  0  0  0  0
  8 27  1  0  0  0  0
  8 28  1  0  0  0  0
  9 29  1  0  0  0  0
  9 30  1  0  0  0  0
 10 31  1  0  0  0  0
M  END
$$$$
