C10H18O2
APtclcactv05262212103D 0   0.00000     0.00000
 
 30 30  0  0  0  0  0  0  0  0999 V2000
    5.5016    0.2244    0.1865 C   0  0  0  0  0  0  0  0  0  0  0  0
    4.1069    0.6407   -0.2849 C   0  0  0  0  0  0  0  0  0  0  0  0
    3.0814   -0.3960    0.1782 C   0  0  0  0  0  0  0  0  0  0  0  0
    1.6867    0.0203   -0.2932 C   0  0  0  0  0  0  0  0  0  0  0  0
    0.6612   -1.0164    0.1699 C   0  0  0  0  0  0  0  0  0  0  0  0
   -0.7335   -0.6000   -0.3016 C   0  0  0  0  0  0  0  0  0  0  0  0
   -1.7417   -1.6968    0.0522 C   0  0  0  0  0  0  0  0  0  0  0  0
   -3.1447   -1.2533   -0.3736 C   0  0  0  0  0  0  0  0  0  0  0  0
   -3.5039    0.0416    0.3654 C   0  0  0  0  0  0  0  0  0  0  0  0
   -2.3904    1.0417    0.1446 C   0  0  0  0  0  0  0  0  0  0  0  0
   -2.6306    2.1703   -0.2137 O   0  0  0  0  0  0  0  0  0  0  0  0
   -1.1212    0.6371    0.3597 O   0  0  0  0  0  0  0  0  0  0  0  0
    6.2322    0.9630   -0.1434 H   0  0  0  0  0  0  0  0  0  0  0  0
    5.5138    0.1621    1.2747 H   0  0  0  0  0  0  0  0  0  0  0  0
    5.7525   -0.7486   -0.2359 H   0  0  0  0  0  0  0  0  0  0  0  0
    3.8560    1.6137    0.1375 H   0  0  0  0  0  0  0  0  0  0  0  0
    4.0947    0.7029   -1.3730 H   0  0  0  0  0  0  0  0  0  0  0  0
    3.3323   -1.3690   -0.2442 H   0  0  0  0  0  0  0  0  0  0  0  0
    3.0936   -0.4582    1.2664 H   0  0  0  0  0  0  0  0  0  0  0  0
    1.4358    0.9933    0.1292 H   0  0  0  0  0  0  0  0  0  0  0  0
    1.6745    0.0826   -1.3814 H   0  0  0  0  0  0  0  0  0  0  0  0
    0.9121   -1.9894   -0.2525 H   0  0  0  0  0  0  0  0  0  0  0  0
    0.6734   -1.0786    1.2580 H   0  0  0  0  0  0  0  0  0  0  0  0
   -0.7232   -0.4493   -1.3810 H   0  0  0  0  0  0  0  0  0  0  0  0
   -1.4769   -2.6163   -0.4697 H   0  0  0  0  0  0  0  0  0  0  0  0
   -1.7265   -1.8716    1.1280 H   0  0  0  0  0  0  0  0  0  0  0  0
   -3.1606   -1.0761   -1.4490 H   0  0  0  0  0  0  0  0  0  0  0  0
   -3.8658   -2.0303   -0.1197 H   0  0  0  0  0  0  0  0  0  0  0  0
   -4.4391    0.4410   -0.0271 H   0  0  0  0  0  0  0  0  0  0  0  0
   -3.6092   -0.1611    1.4311 H   0  0  0  0  0  0  0  0  0  0  0  0
  1  2  1  0  0  0  0
  2  3  1  0  0  0  0
  3  4  1  0  0  0  0
  4  5  1  0  0  0  0
  5  6  1  0  0  0  0
  6  7  1  0  0  0  0
  7  8  1  0  0  0  0
  8  9  1  0  0  0  0
  9 10  1  0  0  0  0
 10 11  2  0  0  0  0
 10 12  1  0  0  0  0
  6 12  1  0  0  0  0
  1 13  1  0  0  0  0
  1 14  1  0  0  0  0
  1 15  1  0  0  0  0
  2 16  1  0  0  0  0
  2 17  1  0  0  0  0
  3 18  1  0  0  0  0
  3 19  1  0  0  0  0
  4 20  1  0  0  0  0
  4 21  1  0  0  0  0
  5 22  1  0  0  0  0
  5 23  1  0  0  0  0
  6 24  1  0  0  0  0
  7 25  1  0  0  0  0
  7 26  1  0  0  0  0
  8 27  1  0  0  0  0
  8 28  1  0  0  0  0
  9 29  1  0  0  0  0
  9 30  1  0  0  0  0
M  END
$$$$
