C11H18O
APtclcactv05262212113D 0   0.00000     0.00000
 
 30 30  0  0  0  0  0  0  0  0999 V2000
    5.1531   -0.0338    0.1369 C   0  0  0  0  0  0  0  0  0  0  0  0
    3.7443   -0.0964    0.7302 C   0  0  0  0  0  0  0  0  0  0  0  0
    2.7122    0.0379   -0.3912 C   0  0  0  0  0  0  0  0  0  0  0  0
    1.3033   -0.0247    0.2021 C   0  0  0  0  0  0  0  0  0  0  0  0
    0.2712    0.1096   -0.9193 C   0  0  0  0  0  0  0  0  0  0  0  0
   -1.1165    0.0479   -0.3348 C   0  0  0  0  0  0  0  0  0  0  0  0
   -1.8292    1.1170   -0.0101 C   0  0  0  0  0  0  0  0  0  0  0  0
   -1.3648    2.5412   -0.1748 C   0  0  0  0  0  0  0  0  0  0  0  0
   -3.1701    0.7093    0.5469 C   0  0  0  0  0  0  0  0  0  0  0  0
   -3.1792   -0.8293    0.5163 C   0  0  0  0  0  0  0  0  0  0  0  0
   -1.8314   -1.1953   -0.0676 C   0  0  0  0  0  0  0  0  0  0  0  0
   -1.4180   -2.3180   -0.2694 O   0  0  0  0  0  0  0  0  0  0  0  0
    5.8884   -0.1294    0.9358 H   0  0  0  0  0  0  0  0  0  0  0  0
    5.2835   -0.8477   -0.5763 H   0  0  0  0  0  0  0  0  0  0  0  0
    5.2912    0.9204   -0.3716 H   0  0  0  0  0  0  0  0  0  0  0  0
    3.6063   -1.0506    1.2387 H   0  0  0  0  0  0  0  0  0  0  0  0
    3.6139    0.7175    1.4434 H   0  0  0  0  0  0  0  0  0  0  0  0
    2.8502    0.9921   -0.8997 H   0  0  0  0  0  0  0  0  0  0  0  0
    2.8426   -0.7760   -1.1044 H   0  0  0  0  0  0  0  0  0  0  0  0
    1.1653   -0.9789    0.7106 H   0  0  0  0  0  0  0  0  0  0  0  0
    1.1729    0.7892    0.9153 H   0  0  0  0  0  0  0  0  0  0  0  0
    0.4092    1.0638   -1.4277 H   0  0  0  0  0  0  0  0  0  0  0  0
    0.4016   -0.7043   -1.6325 H   0  0  0  0  0  0  0  0  0  0  0  0
   -1.6527    2.9055   -1.1610 H   0  0  0  0  0  0  0  0  0  0  0  0
   -1.8255    3.1645    0.5915 H   0  0  0  0  0  0  0  0  0  0  0  0
   -0.2802    2.5836   -0.0742 H   0  0  0  0  0  0  0  0  0  0  0  0
   -3.2773    1.0666    1.5711 H   0  0  0  0  0  0  0  0  0  0  0  0
   -3.9728    1.1034   -0.0764 H   0  0  0  0  0  0  0  0  0  0  0  0
   -3.2842   -1.2305    1.5244 H   0  0  0  0  0  0  0  0  0  0  0  0
   -3.9809   -1.1936   -0.1260 H   0  0  0  0  0  0  0  0  0  0  0  0
  1  2  1  0  0  0  0
  2  3  1  0  0  0  0
  3  4  1  0  0  0  0
  4  5  1  0  0  0  0
  5  6  1  0  0  0  0
  6  7  2  0  0  0  0
  7  8  1  0  0  0  0
  7  9  1  0  0  0  0
  9 10  1  0  0  0  0
 10 11  1  0  0  0  0
  6 11  1  0  0  0  0
 11 12  2  0  0  0  0
  1 13  1  0  0  0  0
  1 14  1  0  0  0  0
  1 15  1  0  0  0  0
  2 16  1  0  0  0  0
  2 17  1  0  0  0  0
  3 18  1  0  0  0  0
  3 19  1  0  0  0  0
  4 20  1  0  0  0  0
  4 21  1  0  0  0  0
  5 22  1  0  0  0  0
  5 23  1  0  0  0  0
  8 24  1  0  0  0  0
  8 25  1  0  0  0  0
  8 26  1  0  0  0  0
  9 27  1  0  0  0  0
  9 28  1  0  0  0  0
 10 29  1  0  0  0  0
 10 30  1  0  0  0  0
M  END
$$$$
