C9H11NO2
APtclcactv05262212103D 0   0.00000     0.00000
 
 23 23  0  0  0  0  0  0  0  0999 V2000
    2.1127    2.6109    0.1023 C   0  0  0  0  0  0  0  0  0  0  0  0
    0.9301    1.7560   -0.0272 N   0  0  0  0  0  0  0  0  0  0  0  0
    1.0680    0.3745   -0.0189 C   0  0  0  0  0  0  0  0  0  0  0  0
    2.3322   -0.2011   -0.0074 C   0  0  0  0  0  0  0  0  0  0  0  0
    2.4666   -1.5744    0.0008 C   0  0  0  0  0  0  0  0  0  0  0  0
    1.3459   -2.3895   -0.0029 C   0  0  0  0  0  0  0  0  0  0  0  0
    0.0836   -1.8378   -0.0148 C   0  0  0  0  0  0  0  0  0  0  0  0
   -0.0700   -0.4486   -0.0164 C   0  0  0  0  0  0  0  0  0  0  0  0
   -1.4165    0.1482   -0.0291 C   0  0  0  0  0  0  0  0  0  0  0  0
   -1.5467    1.3517   -0.1370 O   0  0  0  0  0  0  0  0  0  0  0  0
   -2.5041   -0.6402    0.0789 O   0  0  0  0  0  0  0  0  0  0  0  0
   -3.7989    0.0165    0.0590 C   0  0  0  0  0  0  0  0  0  0  0  0
    2.6104    2.4016    1.0492 H   0  0  0  0  0  0  0  0  0  0  0  0
    2.7983    2.4098   -0.7208 H   0  0  0  0  0  0  0  0  0  0  0  0
    1.8092    3.6575    0.0749 H   0  0  0  0  0  0  0  0  0  0  0  0
    0.0508    2.1551   -0.1188 H   0  0  0  0  0  0  0  0  0  0  0  0
    3.2109    0.4269   -0.0051 H   0  0  0  0  0  0  0  0  0  0  0  0
    3.4518   -2.0170    0.0098 H   0  0  0  0  0  0  0  0  0  0  0  0
    1.4626   -3.4632    0.0032 H   0  0  0  0  0  0  0  0  0  0  0  0
   -0.7863   -2.4779   -0.0180 H   0  0  0  0  0  0  0  0  0  0  0  0
   -4.5868   -0.7308    0.1536 H   0  0  0  0  0  0  0  0  0  0  0  0
   -3.8628    0.7191    0.8899 H   0  0  0  0  0  0  0  0  0  0  0  0
   -3.9192    0.5542   -0.8815 H   0  0  0  0  0  0  0  0  0  0  0  0
  1  2  1  0  0  0  0
  2  3  1  0  0  0  0
  3  4  2  0  0  0  0
  4  5  1  0  0  0  0
  5  6  2  0  0  0  0
  6  7  1  0  0  0  0
  7  8  2  0  0  0  0
  3  8  1  0  0  0  0
  8  9  1  0  0  0  0
  9 10  2  0  0  0  0
  9 11  1  0  0  0  0
 11 12  1  0  0  0  0
  1 13  1  0  0  0  0
  1 14  1  0  0  0  0
  1 15  1  0  0  0  0
  2 16  1  0  0  0  0
  4 17  1  0  0  0  0
  5 18  1  0  0  0  0
  6 19  1  0  0  0  0
  7 20  1  0  0  0  0
 12 21  1  0  0  0  0
 12 22  1  0  0  0  0
 12 23  1  0  0  0  0
M  END
$$$$
