C10H12O
APtclcactv05262212103D 0   0.00000     0.00000
 
 23 23  0  0  0  0  0  0  0  0999 V2000
    3.7442    1.0121    0.1955 C   0  0  0  0  0  0  0  0  0  0  0  0
    3.0745   -0.2440    0.3212 O   0  0  0  0  0  0  0  0  0  0  0  0
    1.7387   -0.2586    0.0718 C   0  0  0  0  0  0  0  0  0  0  0  0
    1.0255   -1.4441    0.1751 C   0  0  0  0  0  0  0  0  0  0  0  0
   -0.3323   -1.4563   -0.0791 C   0  0  0  0  0  0  0  0  0  0  0  0
   -0.9806   -0.2884   -0.4362 C   0  0  0  0  0  0  0  0  0  0  0  0
   -2.4619   -0.3046   -0.7129 C   0  0  0  0  0  0  0  0  0  0  0  0
   -3.2145   -0.0349    0.5646 C   0  0  0  0  0  0  0  0  0  0  0  0
   -4.0817    0.9454    0.6193 C   0  0  0  0  0  0  0  0  0  0  0  0
   -0.2721    0.8945   -0.5394 C   0  0  0  0  0  0  0  0  0  0  0  0
    1.0849    0.9130   -0.2811 C   0  0  0  0  0  0  0  0  0  0  0  0
    3.6325    1.3831   -0.8233 H   0  0  0  0  0  0  0  0  0  0  0  0
    3.3082    1.7277    0.8926 H   0  0  0  0  0  0  0  0  0  0  0  0
    4.8028    0.8836    0.4214 H   0  0  0  0  0  0  0  0  0  0  0  0
    1.5314   -2.3567    0.4536 H   0  0  0  0  0  0  0  0  0  0  0  0
   -0.8879   -2.3790    0.0009 H   0  0  0  0  0  0  0  0  0  0  0  0
   -2.7030    0.4650   -1.4461 H   0  0  0  0  0  0  0  0  0  0  0  0
   -2.7478   -1.2811   -1.1038 H   0  0  0  0  0  0  0  0  0  0  0  0
   -3.0389   -0.6498    1.4349 H   0  0  0  0  0  0  0  0  0  0  0  0
   -4.6211    1.1387    1.5348 H   0  0  0  0  0  0  0  0  0  0  0  0
   -4.2573    1.5603   -0.2510 H   0  0  0  0  0  0  0  0  0  0  0  0
   -0.7807    1.8054   -0.8185 H   0  0  0  0  0  0  0  0  0  0  0  0
    1.6378    1.8372   -0.3619 H   0  0  0  0  0  0  0  0  0  0  0  0
  1  2  1  0  0  0  0
  2  3  1  0  0  0  0
  3  4  1  0  0  0  0
  4  5  2  0  0  0  0
  5  6  1  0  0  0  0
  6  7  1  0  0  0  0
  7  8  1  0  0  0  0
  8  9  2  0  0  0  0
  6 10  2  0  0  0  0
 10 11  1  0  0  0  0
  3 11  2  0  0  0  0
  1 12  1  0  0  0  0
  1 13  1  0  0  0  0
  1 14  1  0  0  0  0
  4 15  1  0  0  0  0
  5 16  1  0  0  0  0
  7 17  1  0  0  0  0
  7 18  1  0  0  0  0
  8 19  1  0  0  0  0
  9 20  1  0  0  0  0
  9 21  1  0  0  0  0
 10 22  1  0  0  0  0
 11 23  1  0  0  0  0
M  END
$$$$
