C10H20O2
APtclcactv05262212103D 0   0.00000     0.00000
 
 32 31  0  0  0  0  0  0  0  0999 V2000
    6.4750   -0.2981   -0.0000 C   0  0  0  0  0  0  0  0  0  0  0  0
    5.1820    0.5199    0.0000 C   0  0  0  0  0  0  0  0  0  0  0  0
    3.9798   -0.4265   -0.0000 C   0  0  0  0  0  0  0  0  0  0  0  0
    2.6868    0.3915    0.0000 C   0  0  0  0  0  0  0  0  0  0  0  0
    1.4846   -0.5548    0.0000 C   0  0  0  0  0  0  0  0  0  0  0  0
    0.1916    0.2632    0.0000 C   0  0  0  0  0  0  0  0  0  0  0  0
   -1.0106   -0.6832    0.0000 C   0  0  0  0  0  0  0  0  0  0  0  0
   -2.2841    0.1225    0.0000 C   0  0  0  0  0  0  0  0  0  0  0  0
   -2.2352    1.3298   -0.0000 O   0  0  0  0  0  0  0  0  0  0  0  0
   -3.4728   -0.5010    0.0000 O   0  0  0  0  0  0  0  0  0  0  0  0
   -4.6575    0.3385   -0.0000 C   0  0  0  0  0  0  0  0  0  0  0  0
   -5.9076   -0.5437    0.0000 C   0  0  0  0  0  0  0  0  0  0  0  0
    6.5073   -0.9266    0.8900 H   0  0  0  0  0  0  0  0  0  0  0  0
    6.5073   -0.9266   -0.8900 H   0  0  0  0  0  0  0  0  0  0  0  0
    7.3314    0.3761   -0.0000 H   0  0  0  0  0  0  0  0  0  0  0  0
    5.1497    1.1483    0.8900 H   0  0  0  0  0  0  0  0  0  0  0  0
    5.1497    1.1483   -0.8900 H   0  0  0  0  0  0  0  0  0  0  0  0
    4.0121   -1.0550   -0.8900 H   0  0  0  0  0  0  0  0  0  0  0  0
    4.0121   -1.0550    0.8900 H   0  0  0  0  0  0  0  0  0  0  0  0
    2.6545    1.0200    0.8900 H   0  0  0  0  0  0  0  0  0  0  0  0
    2.6545    1.0200   -0.8900 H   0  0  0  0  0  0  0  0  0  0  0  0
    1.5169   -1.1833   -0.8900 H   0  0  0  0  0  0  0  0  0  0  0  0
    1.5169   -1.1833    0.8900 H   0  0  0  0  0  0  0  0  0  0  0  0
    0.1593    0.8917    0.8900 H   0  0  0  0  0  0  0  0  0  0  0  0
    0.1593    0.8917   -0.8900 H   0  0  0  0  0  0  0  0  0  0  0  0
   -0.9783   -1.3117   -0.8900 H   0  0  0  0  0  0  0  0  0  0  0  0
   -0.9783   -1.3117    0.8900 H   0  0  0  0  0  0  0  0  0  0  0  0
   -4.6569    0.9678    0.8900 H   0  0  0  0  0  0  0  0  0  0  0  0
   -4.6569    0.9678   -0.8900 H   0  0  0  0  0  0  0  0  0  0  0  0
   -5.9082   -1.1730   -0.8900 H   0  0  0  0  0  0  0  0  0  0  0  0
   -5.9082   -1.1730    0.8900 H   0  0  0  0  0  0  0  0  0  0  0  0
   -6.7970    0.0865   -0.0000 H   0  0  0  0  0  0  0  0  0  0  0  0
  1  2  1  0  0  0  0
  2  3  1  0  0  0  0
  3  4  1  0  0  0  0
  4  5  1  0  0  0  0
  5  6  1  0  0  0  0
  6  7  1  0  0  0  0
  7  8  1  0  0  0  0
  8  9  2  0  0  0  0
  8 10  1  0  0  0  0
 10 11  1  0  0  0  0
 11 12  1  0  0  0  0
  1 13  1  0  0  0  0
  1 14  1  0  0  0  0
  1 15  1  0  0  0  0
  2 16  1  0  0  0  0
  2 17  1  0  0  0  0
  3 18  1  0  0  0  0
  3 19  1  0  0  0  0
  4 20  1  0  0  0  0
  4 21  1  0  0  0  0
  5 22  1  0  0  0  0
  5 23  1  0  0  0  0
  6 24  1  0  0  0  0
  6 25  1  0  0  0  0
  7 26  1  0  0  0  0
  7 27  1  0  0  0  0
 11 28  1  0  0  0  0
 11 29  1  0  0  0  0
 12 30  1  0  0  0  0
 12 31  1  0  0  0  0
 12 32  1  0  0  0  0
M  END
$$$$
