C8H16O3
APtclcactv05262212113D 0   0.00000     0.00000
 
 27 26  0  0  1  0  0  0  0  0999 V2000
    4.9840   -0.6191    0.1378 C   0  0  0  0  0  0  0  0  0  0  0  0
    3.6970    0.1800    0.3519 C   0  0  0  0  0  0  0  0  0  0  0  0
    2.4978   -0.6518   -0.1075 C   0  0  0  0  0  0  0  0  0  0  0  0
    1.2108    0.1473    0.1066 C   0  0  2  0  0  0  0  0  0  0  0  0
    1.1477    0.4623    1.1482 H   0  0  0  0  0  0  0  0  0  0  0  0
    0.0038   -0.7287   -0.2352 C   0  0  0  0  0  0  0  0  0  0  0  0
   -1.2654    0.0151    0.0919 C   0  0  0  0  0  0  0  0  0  0  0  0
   -1.2102    1.1313    0.5512 O   0  0  0  0  0  0  0  0  0  0  0  0
   -2.4572   -0.5623   -0.1271 O   0  0  0  0  0  0  0  0  0  0  0  0
   -3.6374    0.2128    0.2114 C   0  0  0  0  0  0  0  0  0  0  0  0
   -4.8919   -0.6039   -0.1052 C   0  0  0  0  0  0  0  0  0  0  0  0
    1.2186    1.2987   -0.7397 O   0  0  0  0  0  0  0  0  0  0  0  0
    5.8383   -0.0265    0.4651 H   0  0  0  0  0  0  0  0  0  0  0  0
    4.9391   -1.5420    0.7160 H   0  0  0  0  0  0  0  0  0  0  0  0
    5.0915   -0.8581   -0.9202 H   0  0  0  0  0  0  0  0  0  0  0  0
    3.5894    0.4190    1.4099 H   0  0  0  0  0  0  0  0  0  0  0  0
    3.7419    1.1029   -0.2263 H   0  0  0  0  0  0  0  0  0  0  0  0
    2.6053   -0.8909   -1.1655 H   0  0  0  0  0  0  0  0  0  0  0  0
    2.4529   -1.5747    0.4708 H   0  0  0  0  0  0  0  0  0  0  0  0
    0.0196   -0.9705   -1.2979 H   0  0  0  0  0  0  0  0  0  0  0  0
    0.0460   -1.6489    0.3475 H   0  0  0  0  0  0  0  0  0  0  0  0
   -3.6203    0.4554    1.2739 H   0  0  0  0  0  0  0  0  0  0  0  0
   -3.6467    1.1338   -0.3715 H   0  0  0  0  0  0  0  0  0  0  0  0
   -5.7779   -0.0220    0.1490 H   0  0  0  0  0  0  0  0  0  0  0  0
   -4.9090   -0.8465   -1.1677 H   0  0  0  0  0  0  0  0  0  0  0  0
   -4.8826   -1.5249    0.4777 H   0  0  0  0  0  0  0  0  0  0  0  0
    1.2732    1.0931   -1.6830 H   0  0  0  0  0  0  0  0  0  0  0  0
  1  2  1  0  0  0  0
  2  3  1  0  0  0  0
  3  4  1  0  0  0  0
  4  5  1  0  0  0  0
  4  6  1  0  0  0  0
  6  7  1  0  0  0  0
  7  8  2  0  0  0  0
  7  9  1  0  0  0  0
  9 10  1  0  0  0  0
 10 11  1  0  0  0  0
  4 12  1  0  0  0  0
  1 13  1  0  0  0  0
  1 14  1  0  0  0  0
  1 15  1  0  0  0  0
  2 16  1  0  0  0  0
  2 17  1  0  0  0  0
  3 18  1  0  0  0  0
  3 19  1  0  0  0  0
  6 20  1  0  0  0  0
  6 21  1  0  0  0  0
 10 22  1  0  0  0  0
 10 23  1  0  0  0  0
 11 24  1  0  0  0  0
 11 25  1  0  0  0  0
 11 26  1  0  0  0  0
 12 27  1  0  0  0  0
M  END
$$$$
