C9H10O3
APtclcactv05262212103D 0   0.00000     0.00000
 
 22 22  0  0  0  0  0  0  0  0999 V2000
    3.8898    1.6101   -0.0005 C   0  0  0  0  0  0  0  0  0  0  0  0
    2.3673    1.4585   -0.0016 C   0  0  0  0  0  0  0  0  0  0  0  0
    2.0268    0.0707    0.0095 O   0  0  0  0  0  0  0  0  0  0  0  0
    0.7029   -0.2402    0.0099 C   0  0  0  0  0  0  0  0  0  0  0  0
   -0.2421    0.7659   -0.0000 C   0  0  0  0  0  0  0  0  0  0  0  0
   -1.6045    0.4418    0.0001 C   0  0  0  0  0  0  0  0  0  0  0  0
   -2.6150    1.5074   -0.0110 C   0  0  0  0  0  0  0  0  0  0  0  0
   -3.7945    1.2247   -0.0109 O   0  0  0  0  0  0  0  0  0  0  0  0
   -2.0004   -0.9011    0.0102 C   0  0  0  0  0  0  0  0  0  0  0  0
   -1.0510   -1.8981    0.0201 C   0  0  0  0  0  0  0  0  0  0  0  0
    0.3003   -1.5757    0.0147 C   0  0  0  0  0  0  0  0  0  0  0  0
    1.2317   -2.5632    0.0240 O   0  0  0  0  0  0  0  0  0  0  0  0
    4.3008    1.1423    0.8941 H   0  0  0  0  0  0  0  0  0  0  0  0
    4.3037    1.1274   -0.8858 H   0  0  0  0  0  0  0  0  0  0  0  0
    4.1495    2.6687   -0.0089 H   0  0  0  0  0  0  0  0  0  0  0  0
    1.9534    1.9412    0.8837 H   0  0  0  0  0  0  0  0  0  0  0  0
    1.9563    1.9263   -0.8962 H   0  0  0  0  0  0  0  0  0  0  0  0
    0.0684    1.8002   -0.0075 H   0  0  0  0  0  0  0  0  0  0  0  0
   -2.3079    2.5428   -0.0192 H   0  0  0  0  0  0  0  0  0  0  0  0
   -3.0501   -1.1549    0.0107 H   0  0  0  0  0  0  0  0  0  0  0  0
   -1.3575   -2.9337    0.0280 H   0  0  0  0  0  0  0  0  0  0  0  0
    1.5003   -2.8589   -0.8566 H   0  0  0  0  0  0  0  0  0  0  0  0
  1  2  1  0  0  0  0
  2  3  1  0  0  0  0
  3  4  1  0  0  0  0
  4  5  1  0  0  0  0
  5  6  2  0  0  0  0
  6  7  1  0  0  0  0
  7  8  2  0  0  0  0
  6  9  1  0  0  0  0
  9 10  2  0  0  0  0
 10 11  1  0  0  0  0
  4 11  2  0  0  0  0
 11 12  1  0  0  0  0
  1 13  1  0  0  0  0
  1 14  1  0  0  0  0
  1 15  1  0  0  0  0
  2 16  1  0  0  0  0
  2 17  1  0  0  0  0
  5 18  1  0  0  0  0
  7 19  1  0  0  0  0
  9 20  1  0  0  0  0
 10 21  1  0  0  0  0
 12 22  1  0  0  0  0
M  END
$$$$
