C15H26O4
APtclcactv05262212113D 0   0.00000     0.00000
 
 45 45  0  0  0  0  0  0  0  0999 V2000
   -0.0439   -3.5150   -0.6631 C   0  0  0  0  0  0  0  0  0  0  0  0
   -0.9008   -2.8759    0.4315 C   0  0  0  0  0  0  0  0  0  0  0  0
   -2.3269   -2.6795   -0.0869 C   0  0  0  0  0  0  0  0  0  0  0  0
   -3.0612   -1.6785    0.8074 C   0  0  0  0  0  0  0  0  0  0  0  0
   -3.6716   -0.5739   -0.0575 C   0  0  0  0  0  0  0  0  0  0  0  0
   -3.4576    0.7813    0.6198 C   0  0  0  0  0  0  0  0  0  0  0  0
   -2.4789    1.5962   -0.1859 C   0  0  0  0  0  0  0  0  0  0  0  0
   -2.5023    1.5481   -1.3930 O   0  0  0  0  0  0  0  0  0  0  0  0
   -1.5814    2.3757    0.4374 O   0  0  0  0  0  0  0  0  0  0  0  0
   -0.6686    3.1310   -0.4021 C   0  0  0  0  0  0  0  0  0  0  0  0
    0.7131    3.1703    0.2539 C   0  0  0  0  0  0  0  0  0  0  0  0
    1.6409    2.3678   -0.5229 O   0  0  0  0  0  0  0  0  0  0  0  0
    2.4994    1.5953    0.1612 C   0  0  0  0  0  0  0  0  0  0  0  0
    2.4759    1.5890    1.3692 O   0  0  0  0  0  0  0  0  0  0  0  0
    3.4928    0.7362   -0.5778 C   0  0  0  0  0  0  0  0  0  0  0  0
    3.6804   -0.5853    0.1701 C   0  0  0  0  0  0  0  0  0  0  0  0
    2.9199   -1.6956   -0.5577 C   0  0  0  0  0  0  0  0  0  0  0  0
    1.8696   -2.2937    0.3805 C   0  0  0  0  0  0  0  0  0  0  0  0
    1.3998   -3.6407   -0.1724 C   0  0  0  0  0  0  0  0  0  0  0  0
   -0.4349   -4.5047   -0.8992 H   0  0  0  0  0  0  0  0  0  0  0  0
   -0.0710   -2.8911   -1.5564 H   0  0  0  0  0  0  0  0  0  0  0  0
   -0.9184   -3.5268    1.3056 H   0  0  0  0  0  0  0  0  0  0  0  0
   -0.4778   -1.9097    0.7064 H   0  0  0  0  0  0  0  0  0  0  0  0
   -2.2932   -2.2984   -1.1075 H   0  0  0  0  0  0  0  0  0  0  0  0
   -2.8534   -3.6338   -0.0726 H   0  0  0  0  0  0  0  0  0  0  0  0
   -3.8528   -2.1916    1.3534 H   0  0  0  0  0  0  0  0  0  0  0  0
   -2.3578   -1.2392    1.5147 H   0  0  0  0  0  0  0  0  0  0  0  0
   -3.1910   -0.5711   -1.0358 H   0  0  0  0  0  0  0  0  0  0  0  0
   -4.7397   -0.7552   -0.1779 H   0  0  0  0  0  0  0  0  0  0  0  0
   -4.4082    1.3112    0.6807 H   0  0  0  0  0  0  0  0  0  0  0  0
   -3.0624    0.6273    1.6238 H   0  0  0  0  0  0  0  0  0  0  0  0
   -0.5937    2.6533   -1.3789 H   0  0  0  0  0  0  0  0  0  0  0  0
   -1.0427    4.1477   -0.5225 H   0  0  0  0  0  0  0  0  0  0  0  0
    1.0677    4.2003    0.2926 H   0  0  0  0  0  0  0  0  0  0  0  0
    0.6463    2.7708    1.2659 H   0  0  0  0  0  0  0  0  0  0  0  0
    3.1225    0.5353   -1.5831 H   0  0  0  0  0  0  0  0  0  0  0  0
    4.4482    1.2572   -0.6400 H   0  0  0  0  0  0  0  0  0  0  0  0
    4.7408   -0.8348    0.2066 H   0  0  0  0  0  0  0  0  0  0  0  0
    3.2953   -0.4861    1.1850 H   0  0  0  0  0  0  0  0  0  0  0  0
    2.4275   -1.2821   -1.4378 H   0  0  0  0  0  0  0  0  0  0  0  0
    3.6186   -2.4740   -0.8642 H   0  0  0  0  0  0  0  0  0  0  0  0
    2.3059   -2.4389    1.3688 H   0  0  0  0  0  0  0  0  0  0  0  0
    1.0199   -1.6151    0.4545 H   0  0  0  0  0  0  0  0  0  0  0  0
    1.4521   -4.3943    0.6135 H   0  0  0  0  0  0  0  0  0  0  0  0
    2.0413   -3.9364   -1.0026 H   0  0  0  0  0  0  0  0  0  0  0  0
  1  2  1  0  0  0  0
  2  3  1  0  0  0  0
  3  4  1  0  0  0  0
  4  5  1  0  0  0  0
  5  6  1  0  0  0  0
  6  7  1  0  0  0  0
  7  8  2  0  0  0  0
  7  9  1  0  0  0  0
  9 10  1  0  0  0  0
 10 11  1  0  0  0  0
 11 12  1  0  0  0  0
 12 13  1  0  0  0  0
 13 14  2  0  0  0  0
 13 15  1  0  0  0  0
 15 16  1  0  0  0  0
 16 17  1  0  0  0  0
 17 18  1  0  0  0  0
 18 19  1  0  0  0  0
  1 19  1  0  0  0  0
  1 20  1  0  0  0  0
  1 21  1  0  0  0  0
  2 22  1  0  0  0  0
  2 23  1  0  0  0  0
  3 24  1  0  0  0  0
  3 25  1  0  0  0  0
  4 26  1  0  0  0  0
  4 27  1  0  0  0  0
  5 28  1  0  0  0  0
  5 29  1  0  0  0  0
  6 30  1  0  0  0  0
  6 31  1  0  0  0  0
 10 32  1  0  0  0  0
 10 33  1  0  0  0  0
 11 34  1  0  0  0  0
 11 35  1  0  0  0  0
 15 36  1  0  0  0  0
 15 37  1  0  0  0  0
 16 38  1  0  0  0  0
 16 39  1  0  0  0  0
 17 40  1  0  0  0  0
 17 41  1  0  0  0  0
 18 42  1  0  0  0  0
 18 43  1  0  0  0  0
 19 44  1  0  0  0  0
 19 45  1  0  0  0  0
M  END
$$$$
