C7H8O3
APtclcactv05262212103D 0   0.00000     0.00000
 
 18 18  0  0  0  0  0  0  0  0999 V2000
   -2.9531    0.1446   -0.8074 C   0  0  0  0  0  0  0  0  0  0  0  0
   -2.1991    0.1133    0.5236 C   0  0  0  0  0  0  0  0  0  0  0  0
   -0.7631   -0.2725    0.2784 C   0  0  0  0  0  0  0  0  0  0  0  0
    0.1719    0.6926    0.1380 C   0  0  0  0  0  0  0  0  0  0  0  0
    1.5228    0.3120   -0.0929 C   0  0  0  0  0  0  0  0  0  0  0  0
    2.3984    1.1536   -0.2250 O   0  0  0  0  0  0  0  0  0  0  0  0
    1.8249   -1.0708   -0.1650 C   0  0  0  0  0  0  0  0  0  0  0  0
    0.8286   -1.9668   -0.0132 C   0  0  0  0  0  0  0  0  0  0  0  0
   -0.4292   -1.5686    0.2080 O   0  0  0  0  0  0  0  0  0  0  0  0
   -0.1730    2.0067    0.2156 O   0  0  0  0  0  0  0  0  0  0  0  0
   -2.4890    0.8744   -1.4708 H   0  0  0  0  0  0  0  0  0  0  0  0
   -2.9157   -0.8419   -1.2695 H   0  0  0  0  0  0  0  0  0  0  0  0
   -3.9917    0.4237   -0.6301 H   0  0  0  0  0  0  0  0  0  0  0  0
   -2.2365    1.0997    0.9857 H   0  0  0  0  0  0  0  0  0  0  0  0
   -2.6632   -0.6165    1.1869 H   0  0  0  0  0  0  0  0  0  0  0  0
    2.8379   -1.4021   -0.3392 H   0  0  0  0  0  0  0  0  0  0  0  0
    1.0503   -3.0224   -0.0668 H   0  0  0  0  0  0  0  0  0  0  0  0
    0.5694    2.6157    0.1017 H   0  0  0  0  0  0  0  0  0  0  0  0
  1  2  1  0  0  0  0
  2  3  1  0  0  0  0
  3  4  2  0  0  0  0
  4  5  1  0  0  0  0
  5  6  2  0  0  0  0
  5  7  1  0  0  0  0
  7  8  2  0  0  0  0
  8  9  1  0  0  0  0
  3  9  1  0  0  0  0
  4 10  1  0  0  0  0
  1 11  1  0  0  0  0
  1 12  1  0  0  0  0
  1 13  1  0  0  0  0
  2 14  1  0  0  0  0
  2 15  1  0  0  0  0
  7 16  1  0  0  0  0
  8 17  1  0  0  0  0
 10 18  1  0  0  0  0
M  END
$$$$
