C10H12O2
APtclcactv05262212103D 0   0.00000     0.00000
 
 24 24  0  0  0  0  0  0  0  0999 V2000
    4.8778    0.0001    0.0777 C   0  0  0  0  0  0  0  0  0  0  0  0
    3.4546    0.0028    0.6393 C   0  0  0  0  0  0  0  0  0  0  0  0
    2.5019   -0.0022   -0.4564 O   0  0  0  0  0  0  0  0  0  0  0  0
    1.1995   -0.0007   -0.1316 C   0  0  0  0  0  0  0  0  0  0  0  0
    0.8666    0.0048    1.0299 O   0  0  0  0  0  0  0  0  0  0  0  0
    0.1526   -0.0057   -1.2155 C   0  0  0  0  0  0  0  0  0  0  0  0
   -1.2184   -0.0027   -0.5897 C   0  0  0  0  0  0  0  0  0  0  0  0
   -1.8471    1.1958   -0.3083 C   0  0  0  0  0  0  0  0  0  0  0  0
   -3.1046    1.1985    0.2658 C   0  0  0  0  0  0  0  0  0  0  0  0
   -3.7336    0.0028    0.5580 C   0  0  0  0  0  0  0  0  0  0  0  0
   -3.1052   -1.1957    0.2757 C   0  0  0  0  0  0  0  0  0  0  0  0
   -1.8495   -1.1985   -0.3023 C   0  0  0  0  0  0  0  0  0  0  0  0
    5.5930    0.0040    0.9002 H   0  0  0  0  0  0  0  0  0  0  0  0
    5.0272   -0.8927   -0.5295 H   0  0  0  0  0  0  0  0  0  0  0  0
    5.0272    0.8873   -0.5378 H   0  0  0  0  0  0  0  0  0  0  0  0
    3.3052   -0.8843    1.2548 H   0  0  0  0  0  0  0  0  0  0  0  0
    3.3053    0.8957    1.2464 H   0  0  0  0  0  0  0  0  0  0  0  0
    0.2698    0.8814   -1.8379 H   0  0  0  0  0  0  0  0  0  0  0  0
    0.2697   -0.8985   -1.8296 H   0  0  0  0  0  0  0  0  0  0  0  0
   -1.3557    2.1300   -0.5366 H   0  0  0  0  0  0  0  0  0  0  0  0
   -3.5955    2.1349    0.4863 H   0  0  0  0  0  0  0  0  0  0  0  0
   -4.7157    0.0049    1.0072 H   0  0  0  0  0  0  0  0  0  0  0  0
   -3.5965   -2.1300    0.5044 H   0  0  0  0  0  0  0  0  0  0  0  0
   -1.3586   -2.1348   -0.5228 H   0  0  0  0  0  0  0  0  0  0  0  0
  1  2  1  0  0  0  0
  2  3  1  0  0  0  0
  3  4  1  0  0  0  0
  4  5  2  0  0  0  0
  4  6  1  0  0  0  0
  6  7  1  0  0  0  0
  7  8  2  0  0  0  0
  8  9  1  0  0  0  0
  9 10  2  0  0  0  0
 10 11  1  0  0  0  0
 11 12  2  0  0  0  0
  7 12  1  0  0  0  0
  1 13  1  0  0  0  0
  1 14  1  0  0  0  0
  1 15  1  0  0  0  0
  2 16  1  0  0  0  0
  2 17  1  0  0  0  0
  6 18  1  0  0  0  0
  6 19  1  0  0  0  0
  8 20  1  0  0  0  0
  9 21  1  0  0  0  0
 10 22  1  0  0  0  0
 11 23  1  0  0  0  0
 12 24  1  0  0  0  0
M  END
$$$$
