C10H12O2
APtclcactv05262212103D 0   0.00000     0.00000
 
 24 24  0  0  0  0  0  0  0  0999 V2000
   -2.0489    2.5591    0.0284 C   0  0  0  0  0  0  0  0  0  0  0  0
   -2.3530    1.1682    0.1499 O   0  0  0  0  0  0  0  0  0  0  0  0
   -1.3255    0.2942   -0.0226 C   0  0  0  0  0  0  0  0  0  0  0  0
   -0.0528    0.7653   -0.3026 C   0  0  0  0  0  0  0  0  0  0  0  0
    0.9906   -0.1246   -0.4776 C   0  0  0  0  0  0  0  0  0  0  0  0
    2.3741    0.3896   -0.7816 C   0  0  0  0  0  0  0  0  0  0  0  0
    3.1190    0.6199    0.5080 C   0  0  0  0  0  0  0  0  0  0  0  0
    4.2809    0.0476    0.7046 C   0  0  0  0  0  0  0  0  0  0  0  0
    0.7676   -1.4851   -0.3741 C   0  0  0  0  0  0  0  0  0  0  0  0
   -0.4997   -1.9617   -0.0949 C   0  0  0  0  0  0  0  0  0  0  0  0
   -1.5487   -1.0749    0.0874 C   0  0  0  0  0  0  0  0  0  0  0  0
   -2.7960   -1.5422    0.3620 O   0  0  0  0  0  0  0  0  0  0  0  0
   -1.6581    2.7598   -0.9691 H   0  0  0  0  0  0  0  0  0  0  0  0
   -2.9545    3.1444    0.1883 H   0  0  0  0  0  0  0  0  0  0  0  0
   -1.3023    2.8342    0.7733 H   0  0  0  0  0  0  0  0  0  0  0  0
    0.1239    1.8275   -0.3844 H   0  0  0  0  0  0  0  0  0  0  0  0
    2.9098   -0.3435   -1.3846 H   0  0  0  0  0  0  0  0  0  0  0  0
    2.3004    1.3280   -1.3312 H   0  0  0  0  0  0  0  0  0  0  0  0
    2.6949    1.2568    1.2702 H   0  0  0  0  0  0  0  0  0  0  0  0
    4.7050   -0.5892   -0.0576 H   0  0  0  0  0  0  0  0  0  0  0  0
    4.8147    0.2127    1.6288 H   0  0  0  0  0  0  0  0  0  0  0  0
    1.5853   -2.1770   -0.5119 H   0  0  0  0  0  0  0  0  0  0  0  0
   -0.6711   -3.0249   -0.0146 H   0  0  0  0  0  0  0  0  0  0  0  0
   -2.9787   -1.6444    1.3061 H   0  0  0  0  0  0  0  0  0  0  0  0
  1  2  1  0  0  0  0
  2  3  1  0  0  0  0
  3  4  1  0  0  0  0
  4  5  2  0  0  0  0
  5  6  1  0  0  0  0
  6  7  1  0  0  0  0
  7  8  2  0  0  0  0
  5  9  1  0  0  0  0
  9 10  2  0  0  0  0
 10 11  1  0  0  0  0
  3 11  2  0  0  0  0
 11 12  1  0  0  0  0
  1 13  1  0  0  0  0
  1 14  1  0  0  0  0
  1 15  1  0  0  0  0
  4 16  1  0  0  0  0
  6 17  1  0  0  0  0
  6 18  1  0  0  0  0
  7 19  1  0  0  0  0
  8 20  1  0  0  0  0
  8 21  1  0  0  0  0
  9 22  1  0  0  0  0
 10 23  1  0  0  0  0
 12 24  1  0  0  0  0
M  END
$$$$
