C12H18O3
APtclcactv05262212103D 0   0.00000     0.00000
 
 33 32  0  0  0  0  0  0  0  0999 V2000
  -11.0539   -1.4629   -0.2634 C   0  0  0  0  0  0  0  0  0  0  0  0
  -11.4592   -0.1136   -0.5026 O   0  0  0  0  0  0  0  0  0  0  0  0
  -12.7254    0.2229    0.0681 C   0  0  0  0  0  0  0  0  0  0  0  0
    3.2974    3.2436   -0.9614 C   0  0  0  0  0  0  0  0  0  0  0  0
    2.3715    2.5872   -0.0931 O   0  0  0  0  0  0  0  0  0  0  0  0
    2.5260    1.2465    0.0742 C   0  0  0  0  0  0  0  0  0  0  0  0
    3.5464    0.5778   -0.5828 C   0  0  0  0  0  0  0  0  0  0  0  0
    3.7020   -0.7851   -0.4116 C   0  0  0  0  0  0  0  0  0  0  0  0
    4.8126   -1.5107   -1.1266 C   0  0  0  0  0  0  0  0  0  0  0  0
    6.0474   -1.5153   -0.2627 C   0  0  0  0  0  0  0  0  0  0  0  0
    6.6307   -2.6485    0.0401 C   0  0  0  0  0  0  0  0  0  0  0  0
    2.8414   -1.4839    0.4145 C   0  0  0  0  0  0  0  0  0  0  0  0
    1.8214   -0.8228    1.0729 C   0  0  0  0  0  0  0  0  0  0  0  0
    1.6633    0.5441    0.9102 C   0  0  0  0  0  0  0  0  0  0  0  0
    0.6603    1.1960    1.5572 O   0  0  0  0  0  0  0  0  0  0  0  0
  -10.9786   -1.6346    0.8104 H   0  0  0  0  0  0  0  0  0  0  0  0
  -11.7901   -2.1444   -0.6895 H   0  0  0  0  0  0  0  0  0  0  0  0
  -10.0839   -1.6388   -0.7284 H   0  0  0  0  0  0  0  0  0  0  0  0
  -13.4963   -0.4237   -0.3512 H   0  0  0  0  0  0  0  0  0  0  0  0
  -12.6847    0.0861    1.1487 H   0  0  0  0  0  0  0  0  0  0  0  0
  -12.9610    1.2628   -0.1579 H   0  0  0  0  0  0  0  0  0  0  0  0
    3.2261    2.8136   -1.9605 H   0  0  0  0  0  0  0  0  0  0  0  0
    3.0624    4.3071   -1.0060 H   0  0  0  0  0  0  0  0  0  0  0  0
    4.3098    3.1108   -0.5801 H   0  0  0  0  0  0  0  0  0  0  0  0
    4.2198    1.1213   -1.2289 H   0  0  0  0  0  0  0  0  0  0  0  0
    4.5058   -2.5372   -1.3273 H   0  0  0  0  0  0  0  0  0  0  0  0
    5.0296   -1.0057   -2.0678 H   0  0  0  0  0  0  0  0  0  0  0  0
    6.4514   -0.5844    0.1068 H   0  0  0  0  0  0  0  0  0  0  0  0
    6.2267   -3.5795   -0.3294 H   0  0  0  0  0  0  0  0  0  0  0  0
    7.5157   -2.6518    0.6592 H   0  0  0  0  0  0  0  0  0  0  0  0
    2.9661   -2.5487    0.5454 H   0  0  0  0  0  0  0  0  0  0  0  0
    1.1504   -1.3710    1.7177 H   0  0  0  0  0  0  0  0  0  0  0  0
    0.9069    1.5283    2.4312 H   0  0  0  0  0  0  0  0  0  0  0  0
  1  2  1  0  0  0  0
  2  3  1  0  0  0  0
  4  5  1  0  0  0  0
  5  6  1  0  0  0  0
  6  7  1  0  0  0  0
  7  8  2  0  0  0  0
  8  9  1  0  0  0  0
  9 10  1  0  0  0  0
 10 11  2  0  0  0  0
  8 12  1  0  0  0  0
 12 13  2  0  0  0  0
 13 14  1  0  0  0  0
  6 14  2  0  0  0  0
 14 15  1  0  0  0  0
  1 16  1  0  0  0  0
  1 17  1  0  0  0  0
  1 18  1  0  0  0  0
  3 19  1  0  0  0  0
  3 20  1  0  0  0  0
  3 21  1  0  0  0  0
  4 22  1  0  0  0  0
  4 23  1  0  0  0  0
  4 24  1  0  0  0  0
  7 25  1  0  0  0  0
  9 26  1  0  0  0  0
  9 27  1  0  0  0  0
 10 28  1  0  0  0  0
 11 29  1  0  0  0  0
 11 30  1  0  0  0  0
 12 31  1  0  0  0  0
 13 32  1  0  0  0  0
 15 33  1  0  0  0  0
M  END
$$$$
