C8H14O4
APtclcactv05262212113D 0   0.00000     0.00000
 
 26 26  0  0  0  0  0  0  0  0999 V2000
    4.6284   -0.0358   -0.0323 C   0  0  0  0  0  0  0  0  0  0  0  0
    3.2063    0.5287   -0.0321 C   0  0  0  0  0  0  0  0  0  0  0  0
    2.2515   -0.5649   -0.0046 O   0  0  0  0  0  0  0  0  0  0  0  0
    0.9498   -0.2373   -0.0009 C   0  0  0  0  0  0  0  0  0  0  0  0
    0.6191    0.9246   -0.0200 O   0  0  0  0  0  0  0  0  0  0  0  0
   -0.0993   -1.3189    0.0270 C   0  0  0  0  0  0  0  0  0  0  0  0
   -1.4899   -0.6808    0.0256 C   0  0  0  0  0  0  0  0  0  0  0  0
   -2.5579   -1.7759    0.0540 C   0  0  0  0  0  0  0  0  0  0  0  0
   -1.6340    0.1625    1.1761 O   0  0  0  0  0  0  0  0  0  0  0  0
   -1.9052    1.4958    0.6988 C   0  0  0  0  0  0  0  0  0  0  0  0
   -2.4466    1.2525   -0.7322 C   0  0  0  0  0  0  0  0  0  0  0  0
   -1.6519    0.1215   -1.1562 O   0  0  0  0  0  0  0  0  0  0  0  0
    5.3451    0.7851   -0.0529 H   0  0  0  0  0  0  0  0  0  0  0  0
    4.7832   -0.6308    0.8677 H   0  0  0  0  0  0  0  0  0  0  0  0
    4.7698   -0.6638   -0.9119 H   0  0  0  0  0  0  0  0  0  0  0  0
    3.0648    1.1567    0.8475 H   0  0  0  0  0  0  0  0  0  0  0  0
    3.0514    1.1237   -0.9321 H   0  0  0  0  0  0  0  0  0  0  0  0
    0.0100   -1.9538   -0.8522 H   0  0  0  0  0  0  0  0  0  0  0  0
    0.0233   -1.9208    0.9274 H   0  0  0  0  0  0  0  0  0  0  0  0
   -2.4370   -2.3782    0.9544 H   0  0  0  0  0  0  0  0  0  0  0  0
   -3.5473   -1.3186    0.0529 H   0  0  0  0  0  0  0  0  0  0  0  0
   -2.4504   -2.4112   -0.8252 H   0  0  0  0  0  0  0  0  0  0  0  0
   -2.6594    1.9809    1.3186 H   0  0  0  0  0  0  0  0  0  0  0  0
   -0.9905    2.0879    0.6691 H   0  0  0  0  0  0  0  0  0  0  0  0
   -3.5069    1.0009   -0.7107 H   0  0  0  0  0  0  0  0  0  0  0  0
   -2.2651    2.1174   -1.3703 H   0  0  0  0  0  0  0  0  0  0  0  0
  1  2  1  0  0  0  0
  2  3  1  0  0  0  0
  3  4  1  0  0  0  0
  4  5  2  0  0  0  0
  4  6  1  0  0  0  0
  6  7  1  0  0  0  0
  7  8  1  0  0  0  0
  7  9  1  0  0  0  0
  9 10  1  0  0  0  0
 10 11  1  0  0  0  0
 11 12  1  0  0  0  0
  7 12  1  0  0  0  0
  1 13  1  0  0  0  0
  1 14  1  0  0  0  0
  1 15  1  0  0  0  0
  2 16  1  0  0  0  0
  2 17  1  0  0  0  0
  6 18  1  0  0  0  0
  6 19  1  0  0  0  0
  8 20  1  0  0  0  0
  8 21  1  0  0  0  0
  8 22  1  0  0  0  0
 10 23  1  0  0  0  0
 10 24  1  0  0  0  0
 11 25  1  0  0  0  0
 11 26  1  0  0  0  0
M  END
$$$$
