C6H10O2
APtclcactv05262212103D 0   0.00000     0.00000
 
 18 18  0  0  0  0  0  0  0  0999 V2000
    2.8387    0.8730    0.0160 C   0  0  0  0  0  0  0  0  0  0  0  0
    1.9936   -0.3670    0.3148 C   0  0  0  0  0  0  0  0  0  0  0  0
    0.6800   -0.2892   -0.4658 C   0  0  0  0  0  0  0  0  0  0  0  0
   -0.1280   -1.5891   -0.2736 C   0  0  0  0  0  0  0  0  0  0  0  0
   -1.4463   -1.0915    0.3609 C   0  0  0  0  0  0  0  0  0  0  0  0
   -1.4352    0.3999    0.0791 C   0  0  0  0  0  0  0  0  0  0  0  0
   -2.4013    1.1052   -0.0912 O   0  0  0  0  0  0  0  0  0  0  0  0
   -0.1477    0.7893    0.0552 O   0  0  0  0  0  0  0  0  0  0  0  0
    3.0527    0.9181   -1.0518 H   0  0  0  0  0  0  0  0  0  0  0  0
    2.2908    1.7666    0.3149 H   0  0  0  0  0  0  0  0  0  0  0  0
    3.7745    0.8175    0.5721 H   0  0  0  0  0  0  0  0  0  0  0  0
    2.5415   -1.2607    0.0160 H   0  0  0  0  0  0  0  0  0  0  0  0
    1.7796   -0.4122    1.3826 H   0  0  0  0  0  0  0  0  0  0  0  0
    0.8833   -0.1280   -1.5245 H   0  0  0  0  0  0  0  0  0  0  0  0
   -0.3195   -2.0690   -1.2333 H   0  0  0  0  0  0  0  0  0  0  0  0
    0.3916   -2.2693    0.4014 H   0  0  0  0  0  0  0  0  0  0  0  0
   -2.3044   -1.5656   -0.1156 H   0  0  0  0  0  0  0  0  0  0  0  0
   -1.4502   -1.2791    1.4346 H   0  0  0  0  0  0  0  0  0  0  0  0
  1  2  1  0  0  0  0
  2  3  1  0  0  0  0
  3  4  1  0  0  0  0
  4  5  1  0  0  0  0
  5  6  1  0  0  0  0
  6  7  2  0  0  0  0
  6  8  1  0  0  0  0
  3  8  1  0  0  0  0
  1  9  1  0  0  0  0
  1 10  1  0  0  0  0
  1 11  1  0  0  0  0
  2 12  1  0  0  0  0
  2 13  1  0  0  0  0
  3 14  1  0  0  0  0
  4 15  1  0  0  0  0
  4 16  1  0  0  0  0
  5 17  1  0  0  0  0
  5 18  1  0  0  0  0
M  END
$$$$
