C18H26O
APtclcactv05262212113D 0   0.00000     0.00000
 
 45 47  0  0  0  0  0  0  0  0999 V2000
    3.1560    2.2933    0.5409 C   0  0  0  0  0  0  0  0  0  0  0  0
    3.0832    1.0323   -0.3225 C   0  0  0  0  0  0  0  0  0  0  0  0
    4.1867    0.0613    0.1013 C   0  0  0  0  0  0  0  0  0  0  0  0
    3.9499   -1.2004   -0.5335 O   0  0  0  0  0  0  0  0  0  0  0  0
    2.8167   -1.8894   -0.0060 C   0  0  0  0  0  0  0  0  0  0  0  0
    1.6117   -0.9851   -0.0026 C   0  0  0  0  0  0  0  0  0  0  0  0
    0.3554   -1.5487    0.1495 C   0  0  0  0  0  0  0  0  0  0  0  0
   -0.7750   -0.7521    0.1620 C   0  0  0  0  0  0  0  0  0  0  0  0
   -0.6502    0.6177    0.0216 C   0  0  0  0  0  0  0  0  0  0  0  0
    0.6041    1.1798   -0.1318 C   0  0  0  0  0  0  0  0  0  0  0  0
    1.7353    0.3810   -0.1457 C   0  0  0  0  0  0  0  0  0  0  0  0
   -2.0185    1.2634    0.0686 C   0  0  0  0  0  0  0  0  0  0  0  0
   -2.2657    1.8839    1.4451 C   0  0  0  0  0  0  0  0  0  0  0  0
   -2.1406    2.3287   -1.0227 C   0  0  0  0  0  0  0  0  0  0  0  0
   -3.0164    0.1142   -0.1877 C   0  0  0  0  0  0  0  0  0  0  0  0
   -3.3324   -0.0090   -1.6797 C   0  0  0  0  0  0  0  0  0  0  0  0
   -2.2357   -1.1201    0.3114 C   0  0  0  0  0  0  0  0  0  0  0  0
   -2.5662   -2.3411   -0.5493 C   0  0  0  0  0  0  0  0  0  0  0  0
   -2.5654   -1.3990    1.7792 C   0  0  0  0  0  0  0  0  0  0  0  0
    4.1284    2.7679    0.4096 H   0  0  0  0  0  0  0  0  0  0  0  0
    2.3700    2.9858    0.2397 H   0  0  0  0  0  0  0  0  0  0  0  0
    3.0215    2.0245    1.5887 H   0  0  0  0  0  0  0  0  0  0  0  0
    3.2200    1.3017   -1.3697 H   0  0  0  0  0  0  0  0  0  0  0  0
    5.1563    0.4510   -0.2087 H   0  0  0  0  0  0  0  0  0  0  0  0
    4.1682   -0.0642    1.1839 H   0  0  0  0  0  0  0  0  0  0  0  0
    2.6088   -2.7655   -0.6201 H   0  0  0  0  0  0  0  0  0  0  0  0
    3.0311   -2.2089    1.0138 H   0  0  0  0  0  0  0  0  0  0  0  0
    0.2580   -2.6188    0.2589 H   0  0  0  0  0  0  0  0  0  0  0  0
    0.7021    2.2497   -0.2419 H   0  0  0  0  0  0  0  0  0  0  0  0
   -1.5804    2.7180    1.5960 H   0  0  0  0  0  0  0  0  0  0  0  0
   -3.2932    2.2430    1.5026 H   0  0  0  0  0  0  0  0  0  0  0  0
   -2.0996    1.1329    2.2174 H   0  0  0  0  0  0  0  0  0  0  0  0
   -1.9732    1.8709   -1.9977 H   0  0  0  0  0  0  0  0  0  0  0  0
   -3.1385    2.7663   -0.9933 H   0  0  0  0  0  0  0  0  0  0  0  0
   -1.3971    3.1078   -0.8547 H   0  0  0  0  0  0  0  0  0  0  0  0
   -3.9298    0.2581    0.3895 H   0  0  0  0  0  0  0  0  0  0  0  0
   -2.4138   -0.2123   -2.2301 H   0  0  0  0  0  0  0  0  0  0  0  0
   -4.0376   -0.8254   -1.8355 H   0  0  0  0  0  0  0  0  0  0  0  0
   -3.7710    0.9230   -2.0363 H   0  0  0  0  0  0  0  0  0  0  0  0
   -2.2911   -2.1409   -1.5848 H   0  0  0  0  0  0  0  0  0  0  0  0
   -2.0083   -3.2039   -0.1855 H   0  0  0  0  0  0  0  0  0  0  0  0
   -3.6347   -2.5484   -0.4908 H   0  0  0  0  0  0  0  0  0  0  0  0
   -3.6459   -1.4757    1.9006 H   0  0  0  0  0  0  0  0  0  0  0  0
   -2.0980   -2.3349    2.0851 H   0  0  0  0  0  0  0  0  0  0  0  0
   -2.1873   -0.5849    2.3975 H   0  0  0  0  0  0  0  0  0  0  0  0
  1  2  1  0  0  0  0
  2  3  1  0  0  0  0
  3  4  1  0  0  0  0
  4  5  1  0  0  0  0
  5  6  1  0  0  0  0
  6  7  1  0  0  0  0
  7  8  2  0  0  0  0
  8  9  1  0  0  0  0
  9 10  2  0  0  0  0
 10 11  1  0  0  0  0
  2 11  1  0  0  0  0
  6 11  2  0  0  0  0
  9 12  1  0  0  0  0
 12 13  1  0  0  0  0
 12 14  1  0  0  0  0
 12 15  1  0  0  0  0
 15 16  1  0  0  0  0
 15 17  1  0  0  0  0
  8 17  1  0  0  0  0
 17 18  1  0  0  0  0
 17 19  1  0  0  0  0
  1 20  1  0  0  0  0
  1 21  1  0  0  0  0
  1 22  1  0  0  0  0
  2 23  1  0  0  0  0
  3 24  1  0  0  0  0
  3 25  1  0  0  0  0
  5 26  1  0  0  0  0
  5 27  1  0  0  0  0
  7 28  1  0  0  0  0
 10 29  1  0  0  0  0
 13 30  1  0  0  0  0
 13 31  1  0  0  0  0
 13 32  1  0  0  0  0
 14 33  1  0  0  0  0
 14 34  1  0  0  0  0
 14 35  1  0  0  0  0
 15 36  1  0  0  0  0
 16 37  1  0  0  0  0
 16 38  1  0  0  0  0
 16 39  1  0  0  0  0
 18 40  1  0  0  0  0
 18 41  1  0  0  0  0
 18 42  1  0  0  0  0
 19 43  1  0  0  0  0
 19 44  1  0  0  0  0
 19 45  1  0  0  0  0
M  END
$$$$
