C9H16O2
APtclcactv05262212103D 0   0.00000     0.00000
 
 27 27  0  0  0  0  0  0  0  0999 V2000
    5.2135    0.2776    0.3842 C   0  0  0  0  0  0  0  0  0  0  0  0
    3.8734    0.6465   -0.2552 C   0  0  0  0  0  0  0  0  0  0  0  0
    2.7928   -0.3215    0.2307 C   0  0  0  0  0  0  0  0  0  0  0  0
    1.4527    0.0474   -0.4088 C   0  0  0  0  0  0  0  0  0  0  0  0
    0.3721   -0.9206    0.0771 C   0  0  0  0  0  0  0  0  0  0  0  0
   -0.9681   -0.5516   -0.5623 C   0  0  0  0  0  0  0  0  0  0  0  0
   -2.0410   -1.5924   -0.1812 C   0  0  0  0  0  0  0  0  0  0  0  0
   -3.1074   -0.7449    0.5486 C   0  0  0  0  0  0  0  0  0  0  0  0
   -2.7645    0.6785    0.1485 C   0  0  0  0  0  0  0  0  0  0  0  0
   -3.5408    1.5963    0.0265 O   0  0  0  0  0  0  0  0  0  0  0  0
   -1.4340    0.7266   -0.0440 O   0  0  0  0  0  0  0  0  0  0  0  0
    5.1287    0.3425    1.4689 H   0  0  0  0  0  0  0  0  0  0  0  0
    5.4833   -0.7399    0.1011 H   0  0  0  0  0  0  0  0  0  0  0  0
    5.9834    0.9672    0.0380 H   0  0  0  0  0  0  0  0  0  0  0  0
    3.6037    1.6640    0.0278 H   0  0  0  0  0  0  0  0  0  0  0  0
    3.9583    0.5816   -1.3400 H   0  0  0  0  0  0  0  0  0  0  0  0
    3.0625   -1.3390   -0.0524 H   0  0  0  0  0  0  0  0  0  0  0  0
    2.7079   -0.2566    1.3154 H   0  0  0  0  0  0  0  0  0  0  0  0
    1.1829    1.0649   -0.1257 H   0  0  0  0  0  0  0  0  0  0  0  0
    1.5375   -0.0175   -1.4935 H   0  0  0  0  0  0  0  0  0  0  0  0
    0.6418   -1.9381   -0.2060 H   0  0  0  0  0  0  0  0  0  0  0  0
    0.2872   -0.8557    1.1619 H   0  0  0  0  0  0  0  0  0  0  0  0
   -0.8639   -0.5014   -1.6461 H   0  0  0  0  0  0  0  0  0  0  0  0
   -2.4619   -2.0561   -1.0734 H   0  0  0  0  0  0  0  0  0  0  0  0
   -1.6255   -2.3470    0.4867 H   0  0  0  0  0  0  0  0  0  0  0  0
   -4.1079   -1.0093    0.2061 H   0  0  0  0  0  0  0  0  0  0  0  0
   -3.0246   -0.8706    1.6281 H   0  0  0  0  0  0  0  0  0  0  0  0
  1  2  1  0  0  0  0
  2  3  1  0  0  0  0
  3  4  1  0  0  0  0
  4  5  1  0  0  0  0
  5  6  1  0  0  0  0
  6  7  1  0  0  0  0
  7  8  1  0  0  0  0
  8  9  1  0  0  0  0
  9 10  2  0  0  0  0
  9 11  1  0  0  0  0
  6 11  1  0  0  0  0
  1 12  1  0  0  0  0
  1 13  1  0  0  0  0
  1 14  1  0  0  0  0
  2 15  1  0  0  0  0
  2 16  1  0  0  0  0
  3 17  1  0  0  0  0
  3 18  1  0  0  0  0
  4 19  1  0  0  0  0
  4 20  1  0  0  0  0
  5 21  1  0  0  0  0
  5 22  1  0  0  0  0
  6 23  1  0  0  0  0
  7 24  1  0  0  0  0
  7 25  1  0  0  0  0
  8 26  1  0  0  0  0
  8 27  1  0  0  0  0
M  END
$$$$
