C8H14O2
APtclcactv05262212103D 0   0.00000     0.00000
 
 24 24  0  0  0  0  0  0  0  0999 V2000
    4.3816   -0.7950    0.0147 C   0  0  0  0  0  0  0  0  0  0  0  0
    3.3098    0.2139   -0.4025 C   0  0  0  0  0  0  0  0  0  0  0  0
    1.9869   -0.1348    0.2825 C   0  0  0  0  0  0  0  0  0  0  0  0
    0.9150    0.8741   -0.1347 C   0  0  0  0  0  0  0  0  0  0  0  0
   -0.4079    0.5253    0.5504 C   0  0  0  0  0  0  0  0  0  0  0  0
   -1.4658    1.6040    0.2393 C   0  0  0  0  0  0  0  0  0  0  0  0
   -2.5843    0.8045   -0.4662 C   0  0  0  0  0  0  0  0  0  0  0  0
   -2.2655   -0.6374   -0.1152 C   0  0  0  0  0  0  0  0  0  0  0  0
   -3.0616   -1.5368    0.0164 O   0  0  0  0  0  0  0  0  0  0  0  0
   -0.9301   -0.7263    0.0210 O   0  0  0  0  0  0  0  0  0  0  0  0
    5.3241   -0.5465   -0.4734 H   0  0  0  0  0  0  0  0  0  0  0  0
    4.5123   -0.7599    1.0963 H   0  0  0  0  0  0  0  0  0  0  0  0
    4.0722   -1.7973   -0.2816 H   0  0  0  0  0  0  0  0  0  0  0  0
    3.6192    1.2162   -0.1063 H   0  0  0  0  0  0  0  0  0  0  0  0
    3.1791    0.1788   -1.4841 H   0  0  0  0  0  0  0  0  0  0  0  0
    1.6775   -1.1371   -0.0137 H   0  0  0  0  0  0  0  0  0  0  0  0
    2.1175   -0.0997    1.3641 H   0  0  0  0  0  0  0  0  0  0  0  0
    1.2244    1.8763    0.1616 H   0  0  0  0  0  0  0  0  0  0  0  0
    0.7844    0.8390   -1.2163 H   0  0  0  0  0  0  0  0  0  0  0  0
   -0.2612    0.4448    1.6275 H   0  0  0  0  0  0  0  0  0  0  0  0
   -1.8369    2.0561    1.1591 H   0  0  0  0  0  0  0  0  0  0  0  0
   -1.0568    2.3638   -0.4267 H   0  0  0  0  0  0  0  0  0  0  0  0
   -3.5623    1.0870   -0.0764 H   0  0  0  0  0  0  0  0  0  0  0  0
   -2.5419    0.9552   -1.5449 H   0  0  0  0  0  0  0  0  0  0  0  0
  1  2  1  0  0  0  0
  2  3  1  0  0  0  0
  3  4  1  0  0  0  0
  4  5  1  0  0  0  0
  5  6  1  0  0  0  0
  6  7  1  0  0  0  0
  7  8  1  0  0  0  0
  8  9  2  0  0  0  0
  8 10  1  0  0  0  0
  5 10  1  0  0  0  0
  1 11  1  0  0  0  0
  1 12  1  0  0  0  0
  1 13  1  0  0  0  0
  2 14  1  0  0  0  0
  2 15  1  0  0  0  0
  3 16  1  0  0  0  0
  3 17  1  0  0  0  0
  4 18  1  0  0  0  0
  4 19  1  0  0  0  0
  5 20  1  0  0  0  0
  6 21  1  0  0  0  0
  6 22  1  0  0  0  0
  7 23  1  0  0  0  0
  7 24  1  0  0  0  0
M  END
$$$$
