C10H18O
APtclcactv05262212113D 0   0.00000     0.00000
 
 29 28  0  0  0  0  0  0  0  0999 V2000
    2.7070    1.6836    0.5127 C   0  0  0  0  0  0  0  0  0  0  0  0
    3.1683    0.3244    0.0536 C   0  0  0  0  0  0  0  0  0  0  0  0
    4.5736    0.1387   -0.4579 C   0  0  0  0  0  0  0  0  0  0  0  0
    2.3477   -0.6958    0.0993 C   0  0  0  0  0  0  0  0  0  0  0  0
    0.9081   -0.4877    0.4932 C   0  0  0  0  0  0  0  0  0  0  0  0
   -0.0056   -1.0589   -0.5930 C   0  0  0  0  0  0  0  0  0  0  0  0
   -1.4452   -0.8509   -0.1991 C   0  0  0  0  0  0  0  0  0  0  0  0
   -2.1320   -1.8468    0.6996 C   0  0  0  0  0  0  0  0  0  0  0  0
   -2.0997    0.1957   -0.6378 C   0  0  0  0  0  0  0  0  0  0  0  0
   -3.5393    0.4038   -0.2438 C   0  0  0  0  0  0  0  0  0  0  0  0
   -3.7379    1.7680    0.1322 O   0  0  0  0  0  0  0  0  0  0  0  0
    3.5452    2.3798    0.4864 H   0  0  0  0  0  0  0  0  0  0  0  0
    1.9168    2.0412   -0.1474 H   0  0  0  0  0  0  0  0  0  0  0  0
    2.3253    1.6129    1.5312 H   0  0  0  0  0  0  0  0  0  0  0  0
    5.2312   -0.1199    0.3720 H   0  0  0  0  0  0  0  0  0  0  0  0
    4.5884   -0.6628   -1.1966 H   0  0  0  0  0  0  0  0  0  0  0  0
    4.9176    1.0644   -0.9193 H   0  0  0  0  0  0  0  0  0  0  0  0
    2.7029   -1.6859   -0.1454 H   0  0  0  0  0  0  0  0  0  0  0  0
    0.7125   -0.9966    1.4371 H   0  0  0  0  0  0  0  0  0  0  0  0
    0.7133    0.5786    0.6081 H   0  0  0  0  0  0  0  0  0  0  0  0
    0.1900   -0.5501   -1.5369 H   0  0  0  0  0  0  0  0  0  0  0  0
    0.1892   -2.1252   -0.7079 H   0  0  0  0  0  0  0  0  0  0  0  0
   -1.9949   -1.5523    1.7401 H   0  0  0  0  0  0  0  0  0  0  0  0
   -3.1965   -1.8728    0.4666 H   0  0  0  0  0  0  0  0  0  0  0  0
   -1.7014   -2.8356    0.5421 H   0  0  0  0  0  0  0  0  0  0  0  0
   -1.6075    0.9094   -1.2818 H   0  0  0  0  0  0  0  0  0  0  0  0
   -4.1855    0.1617   -1.0876 H   0  0  0  0  0  0  0  0  0  0  0  0
   -3.7829   -0.2443    0.5981 H   0  0  0  0  0  0  0  0  0  0  0  0
   -4.6442    1.9747    0.3984 H   0  0  0  0  0  0  0  0  0  0  0  0
  1  2  1  0  0  0  0
  2  3  1  0  0  0  0
  2  4  2  0  0  0  0
  4  5  1  0  0  0  0
  5  6  1  0  0  0  0
  6  7  1  0  0  0  0
  7  8  1  0  0  0  0
  7  9  2  0  0  0  0
  9 10  1  0  0  0  0
 10 11  1  0  0  0  0
  1 12  1  0  0  0  0
  1 13  1  0  0  0  0
  1 14  1  0  0  0  0
  3 15  1  0  0  0  0
  3 16  1  0  0  0  0
  3 17  1  0  0  0  0
  4 18  1  0  0  0  0
  5 19  1  0  0  0  0
  5 20  1  0  0  0  0
  6 21  1  0  0  0  0
  6 22  1  0  0  0  0
  8 23  1  0  0  0  0
  8 24  1  0  0  0  0
  8 25  1  0  0  0  0
  9 26  1  0  0  0  0
 10 27  1  0  0  0  0
 10 28  1  0  0  0  0
 11 29  1  0  0  0  0
M  END
$$$$
