C12H20O2
APtclcactv05262212242D 0   0.00000     0.00000
 
 34 33  0  0  0  0  0  0  0  0999 V2000
    2.0000   -0.4400    0.0000 C   0  0  0  0  0  0  0  0  0  0  0  0
    2.8660    0.0600    0.0000 C   0  0  0  0  0  0  0  0  0  0  0  0
    2.8660    1.0600    0.0000 O   0  0  0  0  0  0  0  0  0  0  0  0
    3.7321   -0.4400    0.0000 O   0  0  0  0  0  0  0  0  0  0  0  0
    4.5981    0.0600    0.0000 C   0  0  0  0  0  0  0  0  0  0  0  0
    5.4641   -0.4400    0.0000 C   0  0  0  0  0  0  0  0  0  0  0  0
    6.3301    0.0600    0.0000 C   0  0  0  0  0  0  0  0  0  0  0  0
    6.3301    1.0600    0.0000 C   0  0  0  0  0  0  0  0  0  0  0  0
    7.1962   -0.4400    0.0000 C   0  0  0  0  0  0  0  0  0  0  0  0
    8.0622    0.0600    0.0000 C   0  0  0  0  0  0  0  0  0  0  0  0
    8.9282   -0.4400    0.0000 C   0  0  0  0  0  0  0  0  0  0  0  0
    9.7942    0.0600    0.0000 C   0  0  0  0  0  0  0  0  0  0  0  0
   10.6603   -0.4400    0.0000 C   0  0  0  0  0  0  0  0  0  0  0  0
    9.7942    1.0600    0.0000 C   0  0  0  0  0  0  0  0  0  0  0  0
    1.6900    0.0969    0.0000 H   0  0  0  0  0  0  0  0  0  0  0  0
    1.4631   -0.7500    0.0000 H   0  0  0  0  0  0  0  0  0  0  0  0
    2.3100   -0.9769    0.0000 H   0  0  0  0  0  0  0  0  0  0  0  0
    4.9966    0.5349    0.0000 H   0  0  0  0  0  0  0  0  0  0  0  0
    4.1995    0.5349    0.0000 H   0  0  0  0  0  0  0  0  0  0  0  0
    5.4641   -1.0600    0.0000 H   0  0  0  0  0  0  0  0  0  0  0  0
    6.9501    1.0600    0.0000 H   0  0  0  0  0  0  0  0  0  0  0  0
    6.3301    1.6800    0.0000 H   0  0  0  0  0  0  0  0  0  0  0  0
    5.7101    1.0600    0.0000 H   0  0  0  0  0  0  0  0  0  0  0  0
    6.7976   -0.9149    0.0000 H   0  0  0  0  0  0  0  0  0  0  0  0
    7.5947   -0.9149    0.0000 H   0  0  0  0  0  0  0  0  0  0  0  0
    8.4607    0.5349    0.0000 H   0  0  0  0  0  0  0  0  0  0  0  0
    7.6636    0.5349    0.0000 H   0  0  0  0  0  0  0  0  0  0  0  0
    8.9282   -1.0600    0.0000 H   0  0  0  0  0  0  0  0  0  0  0  0
   10.3503   -0.9769    0.0000 H   0  0  0  0  0  0  0  0  0  0  0  0
   11.1972   -0.7500    0.0000 H   0  0  0  0  0  0  0  0  0  0  0  0
   10.9703    0.0969    0.0000 H   0  0  0  0  0  0  0  0  0  0  0  0
   10.4142    1.0600    0.0000 H   0  0  0  0  0  0  0  0  0  0  0  0
    9.7942    1.6800    0.0000 H   0  0  0  0  0  0  0  0  0  0  0  0
    9.1742    1.0600    0.0000 H   0  0  0  0  0  0  0  0  0  0  0  0
  1  2  1  0  0  0  0
  2  3  2  0  0  0  0
  2  4  1  0  0  0  0
  4  5  1  0  0  0  0
  5  6  1  0  0  0  0
  6  7  2  0  0  0  0
  7  8  1  0  0  0  0
  7  9  1  0  0  0  0
  9 10  1  0  0  0  0
 10 11  1  0  0  0  0
 11 12  2  0  0  0  0
 12 13  1  0  0  0  0
 12 14  1  0  0  0  0
  1 15  1  0  0  0  0
  1 16  1  0  0  0  0
  1 17  1  0  0  0  0
  5 18  1  0  0  0  0
  5 19  1  0  0  0  0
  6 20  1  0  0  0  0
  8 21  1  0  0  0  0
  8 22  1  0  0  0  0
  8 23  1  0  0  0  0
  9 24  1  0  0  0  0
  9 25  1  0  0  0  0
 10 26  1  0  0  0  0
 10 27  1  0  0  0  0
 11 28  1  0  0  0  0
 13 29  1  0  0  0  0
 13 30  1  0  0  0  0
 13 31  1  0  0  0  0
 14 32  1  0  0  0  0
 14 33  1  0  0  0  0
 14 34  1  0  0  0  0
M  END
$$$$
