C7H8O2
APtclcactv05262212103D 0   0.00000     0.00000
 
 17 17  0  0  0  0  0  0  0  0999 V2000
    2.7719    0.6574   -0.0020 C   0  0  0  0  0  0  0  0  0  0  0  0
    1.7856   -0.3766    0.0127 O   0  0  0  0  0  0  0  0  0  0  0  0
    0.4827    0.0129    0.0080 C   0  0  0  0  0  0  0  0  0  0  0  0
    0.1609    1.3605   -0.0102 C   0  0  0  0  0  0  0  0  0  0  0  0
   -1.1642    1.7547   -0.0148 C   0  0  0  0  0  0  0  0  0  0  0  0
   -2.1706    0.8070   -0.0013 C   0  0  0  0  0  0  0  0  0  0  0  0
   -1.8564   -0.5392    0.0170 C   0  0  0  0  0  0  0  0  0  0  0  0
   -0.5303   -0.9411    0.0159 C   0  0  0  0  0  0  0  0  0  0  0  0
   -0.2195   -2.2650    0.0338 O   0  0  0  0  0  0  0  0  0  0  0  0
    2.6503    1.2627   -0.9003 H   0  0  0  0  0  0  0  0  0  0  0  0
    2.6513    1.2870    0.8795 H   0  0  0  0  0  0  0  0  0  0  0  0
    3.7663    0.2111    0.0036 H   0  0  0  0  0  0  0  0  0  0  0  0
    0.9452    2.1029   -0.0204 H   0  0  0  0  0  0  0  0  0  0  0  0
   -1.4137    2.8054   -0.0287 H   0  0  0  0  0  0  0  0  0  0  0  0
   -3.2045    1.1189   -0.0046 H   0  0  0  0  0  0  0  0  0  0  0  0
   -2.6445   -1.2775    0.0275 H   0  0  0  0  0  0  0  0  0  0  0  0
   -0.1343   -2.6609   -0.8443 H   0  0  0  0  0  0  0  0  0  0  0  0
  1  2  1  0  0  0  0
  2  3  1  0  0  0  0
  3  4  1  0  0  0  0
  4  5  2  0  0  0  0
  5  6  1  0  0  0  0
  6  7  2  0  0  0  0
  7  8  1  0  0  0  0
  3  8  2  0  0  0  0
  8  9  1  0  0  0  0
  1 10  1  0  0  0  0
  1 11  1  0  0  0  0
  1 12  1  0  0  0  0
  4 13  1  0  0  0  0
  5 14  1  0  0  0  0
  6 15  1  0  0  0  0
  7 16  1  0  0  0  0
  9 17  1  0  0  0  0
M  END
$$$$
