C11H10O3
APtclcactv05262212242D 0   0.00000     0.00000
 
 24 25  0  0  0  0  0  0  0  0999 V2000
    2.0000   -0.0000    0.0000 C   0  0  0  0  0  0  0  0  0  0  0  0
    2.8660    0.5000    0.0000 C   0  0  0  0  0  0  0  0  0  0  0  0
    2.8660    1.5000    0.0000 O   0  0  0  0  0  0  0  0  0  0  0  0
    3.7321    0.0000    0.0000 C   0  0  0  0  0  0  0  0  0  0  0  0
    4.5981    0.5000    0.0000 C   0  0  0  0  0  0  0  0  0  0  0  0
    5.4641    0.0000    0.0000 C   0  0  0  0  0  0  0  0  0  0  0  0
    5.4641   -1.0000    0.0000 C   0  0  0  0  0  0  0  0  0  0  0  0
    6.3301   -1.5000    0.0000 C   0  0  0  0  0  0  0  0  0  0  0  0
    7.1962   -1.0000    0.0000 C   0  0  0  0  0  0  0  0  0  0  0  0
    8.1424   -1.3047    0.0000 O   0  0  0  0  0  0  0  0  0  0  0  0
    8.7260   -0.5000    0.0000 C   0  0  0  0  0  0  0  0  0  0  0  0
    8.1424    0.3047    0.0000 O   0  0  0  0  0  0  0  0  0  0  0  0
    7.1962    0.0000    0.0000 C   0  0  0  0  0  0  0  0  0  0  0  0
    6.3301    0.5000    0.0000 C   0  0  0  0  0  0  0  0  0  0  0  0
    1.6900    0.5369    0.0000 H   0  0  0  0  0  0  0  0  0  0  0  0
    1.4631   -0.3100    0.0000 H   0  0  0  0  0  0  0  0  0  0  0  0
    2.3100   -0.5369    0.0000 H   0  0  0  0  0  0  0  0  0  0  0  0
    3.7321   -0.6200    0.0000 H   0  0  0  0  0  0  0  0  0  0  0  0
    4.5981    1.1200    0.0000 H   0  0  0  0  0  0  0  0  0  0  0  0
    4.9272   -1.3100    0.0000 H   0  0  0  0  0  0  0  0  0  0  0  0
    6.3301   -2.1200    0.0000 H   0  0  0  0  0  0  0  0  0  0  0  0
    9.1869   -0.9147    0.0000 H   0  0  0  0  0  0  0  0  0  0  0  0
    9.1869   -0.0853    0.0000 H   0  0  0  0  0  0  0  0  0  0  0  0
    6.3301    1.1200    0.0000 H   0  0  0  0  0  0  0  0  0  0  0  0
  1  2  1  0  0  0  0
  2  3  2  0  0  0  0
  2  4  1  0  0  0  0
  4  5  2  0  0  0  0
  5  6  1  0  0  0  0
  6  7  1  0  0  0  0
  7  8  2  0  0  0  0
  8  9  1  0  0  0  0
  9 10  1  0  0  0  0
 10 11  1  0  0  0  0
 11 12  1  0  0  0  0
 12 13  1  0  0  0  0
  9 13  2  0  0  0  0
 13 14  1  0  0  0  0
  6 14  2  0  0  0  0
  1 15  1  0  0  0  0
  1 16  1  0  0  0  0
  1 17  1  0  0  0  0
  4 18  1  0  0  0  0
  5 19  1  0  0  0  0
  7 20  1  0  0  0  0
  8 21  1  0  0  0  0
 11 22  1  0  0  0  0
 11 23  1  0  0  0  0
 14 24  1  0  0  0  0
M  END
$$$$
