C9H18O2
APtclcactv05262212103D 0   0.00000     0.00000
 
 29 28  0  0  0  0  0  0  0  0999 V2000
    6.0104   -0.3916   -0.0000 C   0  0  0  0  0  0  0  0  0  0  0  0
    4.7700    0.5042    0.0000 C   0  0  0  0  0  0  0  0  0  0  0  0
    3.5120   -0.3667   -0.0000 C   0  0  0  0  0  0  0  0  0  0  0  0
    2.2716    0.5290    0.0000 C   0  0  0  0  0  0  0  0  0  0  0  0
    1.0136   -0.3419   -0.0000 C   0  0  0  0  0  0  0  0  0  0  0  0
   -0.2268    0.5538    0.0000 C   0  0  0  0  0  0  0  0  0  0  0  0
   -1.4847   -0.3171   -0.0000 C   0  0  0  0  0  0  0  0  0  0  0  0
   -2.6619    0.5329   -0.0000 O   0  0  0  0  0  0  0  0  0  0  0  0
   -3.8561   -0.0799    0.0000 C   0  0  0  0  0  0  0  0  0  0  0  0
   -5.1223    0.7372   -0.0000 C   0  0  0  0  0  0  0  0  0  0  0  0
   -3.9158   -1.2867    0.0000 O   0  0  0  0  0  0  0  0  0  0  0  0
    6.0041   -1.0208    0.8900 H   0  0  0  0  0  0  0  0  0  0  0  0
    6.0041   -1.0208   -0.8900 H   0  0  0  0  0  0  0  0  0  0  0  0
    6.9066    0.2289    0.0000 H   0  0  0  0  0  0  0  0  0  0  0  0
    4.7762    1.1334    0.8900 H   0  0  0  0  0  0  0  0  0  0  0  0
    4.7762    1.1334   -0.8900 H   0  0  0  0  0  0  0  0  0  0  0  0
    3.5058   -0.9960   -0.8900 H   0  0  0  0  0  0  0  0  0  0  0  0
    3.5058   -0.9960    0.8900 H   0  0  0  0  0  0  0  0  0  0  0  0
    2.2779    1.1583    0.8900 H   0  0  0  0  0  0  0  0  0  0  0  0
    2.2779    1.1583   -0.8900 H   0  0  0  0  0  0  0  0  0  0  0  0
    1.0074   -0.9712   -0.8900 H   0  0  0  0  0  0  0  0  0  0  0  0
    1.0074   -0.9712    0.8900 H   0  0  0  0  0  0  0  0  0  0  0  0
   -0.2205    1.1831    0.8900 H   0  0  0  0  0  0  0  0  0  0  0  0
   -0.2205    1.1831   -0.8900 H   0  0  0  0  0  0  0  0  0  0  0  0
   -1.4910   -0.9464   -0.8900 H   0  0  0  0  0  0  0  0  0  0  0  0
   -1.4910   -0.9464    0.8900 H   0  0  0  0  0  0  0  0  0  0  0  0
   -4.8704    1.7977   -0.0000 H   0  0  0  0  0  0  0  0  0  0  0  0
   -5.7062    0.5024   -0.8900 H   0  0  0  0  0  0  0  0  0  0  0  0
   -5.7062    0.5024    0.8900 H   0  0  0  0  0  0  0  0  0  0  0  0
  1  2  1  0  0  0  0
  2  3  1  0  0  0  0
  3  4  1  0  0  0  0
  4  5  1  0  0  0  0
  5  6  1  0  0  0  0
  6  7  1  0  0  0  0
  7  8  1  0  0  0  0
  8  9  1  0  0  0  0
  9 10  1  0  0  0  0
  9 11  2  0  0  0  0
  1 12  1  0  0  0  0
  1 13  1  0  0  0  0
  1 14  1  0  0  0  0
  2 15  1  0  0  0  0
  2 16  1  0  0  0  0
  3 17  1  0  0  0  0
  3 18  1  0  0  0  0
  4 19  1  0  0  0  0
  4 20  1  0  0  0  0
  5 21  1  0  0  0  0
  5 22  1  0  0  0  0
  6 23  1  0  0  0  0
  6 24  1  0  0  0  0
  7 25  1  0  0  0  0
  7 26  1  0  0  0  0
 10 27  1  0  0  0  0
 10 28  1  0  0  0  0
 10 29  1  0  0  0  0
M  END
$$$$
