C10H20O2
APtclcactv05262212103D 0   0.00000     0.00000
 
 32 31  0  0  0  0  0  0  0  0999 V2000
    6.4185    0.4120    0.0000 C   0  0  0  0  0  0  0  0  0  0  0  0
    5.1578   -0.4548   -0.0000 C   0  0  0  0  0  0  0  0  0  0  0  0
    3.9203    0.4448    0.0000 C   0  0  0  0  0  0  0  0  0  0  0  0
    2.6596   -0.4221   -0.0000 C   0  0  0  0  0  0  0  0  0  0  0  0
    1.4220    0.4775    0.0000 C   0  0  0  0  0  0  0  0  0  0  0  0
    0.1613   -0.3894   -0.0000 C   0  0  0  0  0  0  0  0  0  0  0  0
   -1.0132    0.4644   -0.0000 O   0  0  0  0  0  0  0  0  0  0  0  0
   -2.2093   -0.1447   -0.0000 C   0  0  0  0  0  0  0  0  0  0  0  0
   -2.2729   -1.3512    0.0000 O   0  0  0  0  0  0  0  0  0  0  0  0
   -3.4730    0.6765   -0.0000 C   0  0  0  0  0  0  0  0  0  0  0  0
   -4.6866   -0.2552    0.0000 C   0  0  0  0  0  0  0  0  0  0  0  0
   -5.9695    0.5784    0.0000 C   0  0  0  0  0  0  0  0  0  0  0  0
    6.4268    1.0413    0.8900 H   0  0  0  0  0  0  0  0  0  0  0  0
    7.3002   -0.2289    0.0000 H   0  0  0  0  0  0  0  0  0  0  0  0
    6.4268    1.0413   -0.8900 H   0  0  0  0  0  0  0  0  0  0  0  0
    5.1496   -1.0841   -0.8900 H   0  0  0  0  0  0  0  0  0  0  0  0
    5.1496   -1.0841    0.8900 H   0  0  0  0  0  0  0  0  0  0  0  0
    3.9285    1.0741    0.8900 H   0  0  0  0  0  0  0  0  0  0  0  0
    3.9285    1.0741   -0.8900 H   0  0  0  0  0  0  0  0  0  0  0  0
    2.6513   -1.0514   -0.8900 H   0  0  0  0  0  0  0  0  0  0  0  0
    2.6513   -1.0514    0.8900 H   0  0  0  0  0  0  0  0  0  0  0  0
    1.4302    1.1068    0.8900 H   0  0  0  0  0  0  0  0  0  0  0  0
    1.4302    1.1068   -0.8900 H   0  0  0  0  0  0  0  0  0  0  0  0
    0.1530   -1.0186   -0.8900 H   0  0  0  0  0  0  0  0  0  0  0  0
    0.1530   -1.0186    0.8900 H   0  0  0  0  0  0  0  0  0  0  0  0
   -3.4977    1.3053    0.8900 H   0  0  0  0  0  0  0  0  0  0  0  0
   -3.4977    1.3053   -0.8900 H   0  0  0  0  0  0  0  0  0  0  0  0
   -4.6619   -0.8841   -0.8900 H   0  0  0  0  0  0  0  0  0  0  0  0
   -4.6619   -0.8841    0.8900 H   0  0  0  0  0  0  0  0  0  0  0  0
   -6.8341   -0.0853    0.0000 H   0  0  0  0  0  0  0  0  0  0  0  0
   -5.9942    1.2072    0.8900 H   0  0  0  0  0  0  0  0  0  0  0  0
   -5.9942    1.2072   -0.8900 H   0  0  0  0  0  0  0  0  0  0  0  0
  1  2  1  0  0  0  0
  2  3  1  0  0  0  0
  3  4  1  0  0  0  0
  4  5  1  0  0  0  0
  5  6  1  0  0  0  0
  6  7  1  0  0  0  0
  7  8  1  0  0  0  0
  8  9  2  0  0  0  0
  8 10  1  0  0  0  0
 10 11  1  0  0  0  0
 11 12  1  0  0  0  0
  1 13  1  0  0  0  0
  1 14  1  0  0  0  0
  1 15  1  0  0  0  0
  2 16  1  0  0  0  0
  2 17  1  0  0  0  0
  3 18  1  0  0  0  0
  3 19  1  0  0  0  0
  4 20  1  0  0  0  0
  4 21  1  0  0  0  0
  5 22  1  0  0  0  0
  5 23  1  0  0  0  0
  6 24  1  0  0  0  0
  6 25  1  0  0  0  0
 10 26  1  0  0  0  0
 10 27  1  0  0  0  0
 11 28  1  0  0  0  0
 11 29  1  0  0  0  0
 12 30  1  0  0  0  0
 12 31  1  0  0  0  0
 12 32  1  0  0  0  0
M  END
$$$$
