C10H18O2
APtclcactv05262212103D 0   0.00000     0.00000
 
 30 29  0  0  0  0  0  0  0  0999 V2000
    2.0955    0.1220    1.8132 C   0  0  0  0  0  0  0  0  0  0  0  0
    1.8467    0.0075    0.3079 C   0  0  0  0  0  0  0  0  0  0  0  0
    0.6042    0.8179   -0.0667 C   0  0  0  0  0  0  0  0  0  0  0  0
   -0.6279    0.1979    0.5955 C   0  0  0  0  0  0  0  0  0  0  0  0
   -1.8517    0.9961    0.2265 C   0  0  0  0  0  0  0  0  0  0  0  0
   -2.8973    0.3939   -0.2836 C   0  0  0  0  0  0  0  0  0  0  0  0
   -4.0528    1.2061   -0.8091 C   0  0  0  0  0  0  0  0  0  0  0  0
   -2.9446   -1.1111   -0.3447 C   0  0  0  0  0  0  0  0  0  0  0  0
   -4.1469   -1.5754    0.2725 O   0  0  0  0  0  0  0  0  0  0  0  0
    3.0583    0.5510   -0.4521 C   0  0  0  0  0  0  0  0  0  0  0  0
    4.2558   -0.3219   -0.1784 C   0  0  0  0  0  0  0  0  0  0  0  0
    4.8681   -0.8122   -1.0966 O   0  0  0  0  0  0  0  0  0  0  0  0
    2.2507    1.1681    2.0773 H   0  0  0  0  0  0  0  0  0  0  0  0
    1.2323   -0.2651    2.3546 H   0  0  0  0  0  0  0  0  0  0  0  0
    2.9807   -0.4553    2.0801 H   0  0  0  0  0  0  0  0  0  0  0  0
    1.6914   -1.0385    0.0438 H   0  0  0  0  0  0  0  0  0  0  0  0
    0.7232    1.8454    0.2772 H   0  0  0  0  0  0  0  0  0  0  0  0
    0.4777    0.8095   -1.1493 H   0  0  0  0  0  0  0  0  0  0  0  0
   -0.7469   -0.8295    0.2515 H   0  0  0  0  0  0  0  0  0  0  0  0
   -0.5014    0.2063    1.6781 H   0  0  0  0  0  0  0  0  0  0  0  0
   -1.8668    2.0647    0.3825 H   0  0  0  0  0  0  0  0  0  0  0  0
   -3.8922    1.4258   -1.8645 H   0  0  0  0  0  0  0  0  0  0  0  0
   -4.9773    0.6405   -0.6923 H   0  0  0  0  0  0  0  0  0  0  0  0
   -4.1248    2.1393   -0.2505 H   0  0  0  0  0  0  0  0  0  0  0  0
   -2.9228   -1.4333   -1.3858 H   0  0  0  0  0  0  0  0  0  0  0  0
   -2.0835   -1.5234    0.1812 H   0  0  0  0  0  0  0  0  0  0  0  0
   -4.2445   -2.5375    0.2694 H   0  0  0  0  0  0  0  0  0  0  0  0
    2.8461    0.5519   -1.5212 H   0  0  0  0  0  0  0  0  0  0  0  0
    3.2675    1.5686   -0.1223 H   0  0  0  0  0  0  0  0  0  0  0  0
    4.5665   -0.5091    0.8389 H   0  0  0  0  0  0  0  0  0  0  0  0
  1  2  1  0  0  0  0
  2  3  1  0  0  0  0
  3  4  1  0  0  0  0
  4  5  1  0  0  0  0
  5  6  2  0  0  0  0
  6  7  1  0  0  0  0
  6  8  1  0  0  0  0
  8  9  1  0  0  0  0
  2 10  1  0  0  0  0
 10 11  1  0  0  0  0
 11 12  2  0  0  0  0
  1 13  1  0  0  0  0
  1 14  1  0  0  0  0
  1 15  1  0  0  0  0
  2 16  1  0  0  0  0
  3 17  1  0  0  0  0
  3 18  1  0  0  0  0
  4 19  1  0  0  0  0
  4 20  1  0  0  0  0
  5 21  1  0  0  0  0
  7 22  1  0  0  0  0
  7 23  1  0  0  0  0
  7 24  1  0  0  0  0
  8 25  1  0  0  0  0
  8 26  1  0  0  0  0
  9 27  1  0  0  0  0
 10 28  1  0  0  0  0
 10 29  1  0  0  0  0
 11 30  1  0  0  0  0
M  END
$$$$
