C4H10S
APtclcactv05262212103D 0   0.00000     0.00000
 
 15 14  0  0  0  0  0  0  0  0999 V2000
   -1.0194    1.4356   -0.1786 C   0  0  0  0  0  0  0  0  0  0  0  0
   -0.9439   -0.0013    0.3416 C   0  0  0  0  0  0  0  0  0  0  0  0
   -2.2641   -0.7185    0.0523 C   0  0  0  0  0  0  0  0  0  0  0  0
    0.2004   -0.7375   -0.3579 C   0  0  0  0  0  0  0  0  0  0  0  0
    1.7809    0.0237    0.1038 S   0  0  0  0  0  0  0  0  0  0  0  0
   -0.0789    1.9465    0.0275 H   0  0  0  0  0  0  0  0  0  0  0  0
   -1.1984    1.4238   -1.2538 H   0  0  0  0  0  0  0  0  0  0  0  0
   -1.8347    1.9601    0.3197 H   0  0  0  0  0  0  0  0  0  0  0  0
   -0.7649    0.0105    1.4168 H   0  0  0  0  0  0  0  0  0  0  0  0
   -2.4431   -0.7303   -1.0228 H   0  0  0  0  0  0  0  0  0  0  0  0
   -2.2103   -1.7421    0.4229 H   0  0  0  0  0  0  0  0  0  0  0  0
   -3.0793   -0.1940    0.5507 H   0  0  0  0  0  0  0  0  0  0  0  0
    0.1987   -1.7842   -0.0538 H   0  0  0  0  0  0  0  0  0  0  0  0
    0.0677   -0.6727   -1.4379 H   0  0  0  0  0  0  0  0  0  0  0  0
    2.6805   -0.7126   -0.5726 H   0  0  0  0  0  0  0  0  0  0  0  0
  1  2  1  0  0  0  0
  2  3  1  0  0  0  0
  2  4  1  0  0  0  0
  4  5  1  0  0  0  0
  1  6  1  0  0  0  0
  1  7  1  0  0  0  0
  1  8  1  0  0  0  0
  2  9  1  0  0  0  0
  3 10  1  0  0  0  0
  3 11  1  0  0  0  0
  3 12  1  0  0  0  0
  4 13  1  0  0  0  0
  4 14  1  0  0  0  0
  5 15  1  0  0  0  0
M  END
$$$$
