C4H8O2
APtclcactv05262212103D 0   0.00000     0.00000
 
 14 13  0  0  0  0  0  0  0  0999 V2000
    1.2095    1.3794    0.4131 C   0  0  0  0  0  0  0  0  0  0  0  0
    0.7279    0.1939   -0.4257 C   0  0  0  0  0  0  0  0  0  0  0  0
    1.6185   -1.0198   -0.1519 C   0  0  0  0  0  0  0  0  0  0  0  0
   -0.6963   -0.1352   -0.0591 C   0  0  0  0  0  0  0  0  0  0  0  0
   -1.6598    0.7860   -0.2164 O   0  0  0  0  0  0  0  0  0  0  0  0
   -0.9708   -1.2283    0.3764 O   0  0  0  0  0  0  0  0  0  0  0  0
    2.2396    1.6174    0.1480 H   0  0  0  0  0  0  0  0  0  0  0  0
    0.5751    2.2440    0.2181 H   0  0  0  0  0  0  0  0  0  0  0  0
    1.1569    1.1213    1.4708 H   0  0  0  0  0  0  0  0  0  0  0  0
    0.7805    0.4519   -1.4834 H   0  0  0  0  0  0  0  0  0  0  0  0
    1.5659   -1.2779    0.9058 H   0  0  0  0  0  0  0  0  0  0  0  0
    1.2754   -1.8643   -0.7495 H   0  0  0  0  0  0  0  0  0  0  0  0
    2.6486   -0.7817   -0.4171 H   0  0  0  0  0  0  0  0  0  0  0  0
   -2.5581    0.5286    0.0324 H   0  0  0  0  0  0  0  0  0  0  0  0
  1  2  1  0  0  0  0
  2  3  1  0  0  0  0
  2  4  1  0  0  0  0
  4  5  1  0  0  0  0
  4  6  2  0  0  0  0
  1  7  1  0  0  0  0
  1  8  1  0  0  0  0
  1  9  1  0  0  0  0
  2 10  1  0  0  0  0
  3 11  1  0  0  0  0
  3 12  1  0  0  0  0
  3 13  1  0  0  0  0
  5 14  1  0  0  0  0
M  END
$$$$
