C12H20O2
APtclcactv05262212242D 0   0.00000     0.00000
 
 34 35  0  0  1  0  0  0  0  0999 V2000
    2.4483   -3.0669    0.0000 C   0  0  0  0  0  0  0  0  0  0  0  0
    2.7071   -2.1009    0.0000 C   0  0  0  0  0  0  0  0  0  0  0  0
    2.0000   -1.3938    0.0000 O   0  0  0  0  0  0  0  0  0  0  0  0
    3.6730   -1.8421    0.0000 O   0  0  0  0  0  0  0  0  0  0  0  0
    3.9319   -0.8762    0.0000 C   0  0  1  0  0  0  0  0  0  0  0  0
    4.4237   -1.2536    0.0000 H   0  0  0  0  0  0  0  0  0  0  0  0
    3.4319   -0.0102    0.0000 C   0  0  0  0  0  0  0  0  0  0  0  0
    5.9227    1.0897    0.0000 C   0  0  2  0  0  0  0  0  0  0  0  0
    6.1427    1.9108    0.0000 H   0  0  0  0  0  0  0  0  0  0  0  0
    7.7547    0.3309    0.0000 C   0  0  0  0  0  0  0  0  0  0  0  0
    7.4959   -0.6350    0.0000 C   0  0  0  0  0  0  0  0  0  0  0  0
    5.6639    0.1238    0.0000 C   0  0  1  0  0  0  0  0  0  0  0  0
    5.1861    2.0723    0.0000 C   0  0  0  0  0  0  0  0  0  0  0  0
    5.2906    3.0669    0.0000 C   0  0  0  0  0  0  0  0  0  0  0  0
    4.2726    2.4791    0.0000 C   0  0  0  0  0  0  0  0  0  0  0  0
    5.4051   -0.8421    0.0000 C   0  0  0  0  0  0  0  0  0  0  0  0
    1.8494   -2.9064    0.0000 H   0  0  0  0  0  0  0  0  0  0  0  0
    2.2878   -3.6657    0.0000 H   0  0  0  0  0  0  0  0  0  0  0  0
    3.0472   -3.2273    0.0000 H   0  0  0  0  0  0  0  0  0  0  0  0
    3.1612    0.5476    0.0000 H   0  0  0  0  0  0  0  0  0  0  0  0
    2.8841   -0.3007    0.0000 H   0  0  0  0  0  0  0  0  0  0  0  0
    8.3460    0.1445    0.0000 H   0  0  0  0  0  0  0  0  0  0  0  0
    7.9667    0.9135    0.0000 H   0  0  0  0  0  0  0  0  0  0  0  0
    7.2838   -1.2176    0.0000 H   0  0  0  0  0  0  0  0  0  0  0  0
    8.0872   -0.8215    0.0000 H   0  0  0  0  0  0  0  0  0  0  0  0
    5.9072    3.0021    0.0000 H   0  0  0  0  0  0  0  0  0  0  0  0
    5.3554    3.6835    0.0000 H   0  0  0  0  0  0  0  0  0  0  0  0
    4.6740    3.1317    0.0000 H   0  0  0  0  0  0  0  0  0  0  0  0
    4.5247    3.0455    0.0000 H   0  0  0  0  0  0  0  0  0  0  0  0
    3.7062    2.7313    0.0000 H   0  0  0  0  0  0  0  0  0  0  0  0
    4.0204    1.9127    0.0000 H   0  0  0  0  0  0  0  0  0  0  0  0
    4.8062   -0.6817    0.0000 H   0  0  0  0  0  0  0  0  0  0  0  0
    5.2446   -1.4410    0.0000 H   0  0  0  0  0  0  0  0  0  0  0  0
    6.0040   -1.0026    0.0000 H   0  0  0  0  0  0  0  0  0  0  0  0
  1  2  1  0  0  0  0
  2  3  2  0  0  0  0
  2  4  1  0  0  0  0
  5  4  1  1  0  0  0
  5  6  1  0  0  0  0
  5  7  1  0  0  0  0
  7  8  1  0  0  0  0
  8  9  1  6  0  0  0
  8 10  1  0  0  0  0
 10 11  1  0  0  0  0
 11 12  1  0  0  0  0
  5 12  1  0  0  0  0
 12 13  1  0  0  0  0
  8 13  1  0  0  0  0
 13 14  1  0  0  0  0
 13 15  1  0  0  0  0
 12 16  1  1  0  0  0
  1 17  1  0  0  0  0
  1 18  1  0  0  0  0
  1 19  1  0  0  0  0
  7 20  1  0  0  0  0
  7 21  1  0  0  0  0
 10 22  1  0  0  0  0
 10 23  1  0  0  0  0
 11 24  1  0  0  0  0
 11 25  1  0  0  0  0
 14 26  1  0  0  0  0
 14 27  1  0  0  0  0
 14 28  1  0  0  0  0
 15 29  1  0  0  0  0
 15 30  1  0  0  0  0
 15 31  1  0  0  0  0
 16 32  1  0  0  0  0
 16 33  1  0  0  0  0
 16 34  1  0  0  0  0
M  END
$$$$
