C10H12O2
APtclcactv05262212113D 0   0.00000     0.00000
 
 24 24  0  0  0  0  0  0  0  0999 V2000
    2.3117    2.5097   -0.0020 C   0  0  0  0  0  0  0  0  0  0  0  0
    2.5398    1.0991    0.0077 O   0  0  0  0  0  0  0  0  0  0  0  0
    1.4422    0.2961    0.0093 C   0  0  0  0  0  0  0  0  0  0  0  0
    0.1771    0.8544    0.0016 C   0  0  0  0  0  0  0  0  0  0  0  0
   -0.9472    0.0275    0.0033 C   0  0  0  0  0  0  0  0  0  0  0  0
   -2.3014    0.6191   -0.0053 C   0  0  0  0  0  0  0  0  0  0  0  0
   -3.3686   -0.1678   -0.0037 C   0  0  0  0  0  0  0  0  0  0  0  0
   -4.7496    0.4355   -0.0125 C   0  0  0  0  0  0  0  0  0  0  0  0
   -0.7900   -1.3592    0.0127 C   0  0  0  0  0  0  0  0  0  0  0  0
    0.4747   -1.9100    0.0207 C   0  0  0  0  0  0  0  0  0  0  0  0
    1.5923   -1.0885    0.0128 C   0  0  0  0  0  0  0  0  0  0  0  0
    2.8367   -1.6360    0.0207 O   0  0  0  0  0  0  0  0  0  0  0  0
    1.7493    2.7807   -0.8955 H   0  0  0  0  0  0  0  0  0  0  0  0
    1.7436    2.7920    0.8844 H   0  0  0  0  0  0  0  0  0  0  0  0
    3.2682    3.0325   -0.0022 H   0  0  0  0  0  0  0  0  0  0  0  0
    0.0593    1.9279   -0.0053 H   0  0  0  0  0  0  0  0  0  0  0  0
   -2.4218    1.6923   -0.0129 H   0  0  0  0  0  0  0  0  0  0  0  0
   -3.2482   -1.2410    0.0039 H   0  0  0  0  0  0  0  0  0  0  0  0
   -5.4939   -0.3608   -0.0097 H   0  0  0  0  0  0  0  0  0  0  0  0
   -4.8799    1.0577    0.8729 H   0  0  0  0  0  0  0  0  0  0  0  0
   -4.8738    1.0458   -0.9070 H   0  0  0  0  0  0  0  0  0  0  0  0
   -1.6585   -2.0011    0.0140 H   0  0  0  0  0  0  0  0  0  0  0  0
    0.5950   -2.9832    0.0287 H   0  0  0  0  0  0  0  0  0  0  0  0
    3.1979   -1.8045   -0.8603 H   0  0  0  0  0  0  0  0  0  0  0  0
  1  2  1  0  0  0  0
  2  3  1  0  0  0  0
  3  4  1  0  0  0  0
  4  5  2  0  0  0  0
  5  6  1  0  0  0  0
  6  7  2  0  0  0  0
  7  8  1  0  0  0  0
  5  9  1  0  0  0  0
  9 10  2  0  0  0  0
 10 11  1  0  0  0  0
  3 11  2  0  0  0  0
 11 12  1  0  0  0  0
  1 13  1  0  0  0  0
  1 14  1  0  0  0  0
  1 15  1  0  0  0  0
  4 16  1  0  0  0  0
  6 17  1  0  0  0  0
  7 18  1  0  0  0  0
  8 19  1  0  0  0  0
  8 20  1  0  0  0  0
  8 21  1  0  0  0  0
  9 22  1  0  0  0  0
 10 23  1  0  0  0  0
 12 24  1  0  0  0  0
M  END
$$$$
