C9H20O
APtclcactv05262212103D 0   0.00000     0.00000
 
 30 29  0  0  0  0  0  0  0  0999 V2000
   -3.5843    1.4028   -0.3913 C   0  0  0  0  0  0  0  0  0  0  0  0
   -3.4390    0.0634    0.3338 C   0  0  0  0  0  0  0  0  0  0  0  0
   -4.6445   -0.8229    0.0143 C   0  0  0  0  0  0  0  0  0  0  0  0
   -2.1576   -0.6317   -0.1307 C   0  0  0  0  0  0  0  0  0  0  0  0
   -0.9443    0.1952    0.2994 C   0  0  0  0  0  0  0  0  0  0  0  0
    0.3371   -0.4999   -0.1651 C   0  0  0  0  0  0  0  0  0  0  0  0
    1.5505    0.3270    0.2650 C   0  0  0  0  0  0  0  0  0  0  0  0
    2.8319   -0.3681   -0.1995 C   0  0  0  0  0  0  0  0  0  0  0  0
    4.0453    0.4587    0.2306 C   0  0  0  0  0  0  0  0  0  0  0  0
    5.2421   -0.1904   -0.2032 O   0  0  0  0  0  0  0  0  0  0  0  0
   -3.6338    1.2304   -1.4664 H   0  0  0  0  0  0  0  0  0  0  0  0
   -4.4972    1.8980   -0.0603 H   0  0  0  0  0  0  0  0  0  0  0  0
   -2.7255    2.0342   -0.1637 H   0  0  0  0  0  0  0  0  0  0  0  0
   -3.3896    0.2358    1.4090 H   0  0  0  0  0  0  0  0  0  0  0  0
   -4.6940   -0.9953   -1.0608 H   0  0  0  0  0  0  0  0  0  0  0  0
   -4.5410   -1.7771    0.5309 H   0  0  0  0  0  0  0  0  0  0  0  0
   -5.5574   -0.3278    0.3452 H   0  0  0  0  0  0  0  0  0  0  0  0
   -2.0991   -1.6233    0.3179 H   0  0  0  0  0  0  0  0  0  0  0  0
   -2.1677   -0.7242   -1.2167 H   0  0  0  0  0  0  0  0  0  0  0  0
   -1.0028    1.1868   -0.1492 H   0  0  0  0  0  0  0  0  0  0  0  0
   -0.9342    0.2877    1.3854 H   0  0  0  0  0  0  0  0  0  0  0  0
    0.3957   -1.4915    0.2835 H   0  0  0  0  0  0  0  0  0  0  0  0
    0.3271   -0.5924   -1.2511 H   0  0  0  0  0  0  0  0  0  0  0  0
    1.4919    1.3186   -0.1836 H   0  0  0  0  0  0  0  0  0  0  0  0
    1.5606    0.4195    1.3510 H   0  0  0  0  0  0  0  0  0  0  0  0
    2.8905   -1.3598    0.2491 H   0  0  0  0  0  0  0  0  0  0  0  0
    2.8218   -0.4607   -1.2855 H   0  0  0  0  0  0  0  0  0  0  0  0
    3.9867    1.4504   -0.2180 H   0  0  0  0  0  0  0  0  0  0  0  0
    4.0553    0.5513    1.3166 H   0  0  0  0  0  0  0  0  0  0  0  0
    6.0530    0.2791    0.0356 H   0  0  0  0  0  0  0  0  0  0  0  0
  1  2  1  0  0  0  0
  2  3  1  0  0  0  0
  2  4  1  0  0  0  0
  4  5  1  0  0  0  0
  5  6  1  0  0  0  0
  6  7  1  0  0  0  0
  7  8  1  0  0  0  0
  8  9  1  0  0  0  0
  9 10  1  0  0  0  0
  1 11  1  0  0  0  0
  1 12  1  0  0  0  0
  1 13  1  0  0  0  0
  2 14  1  0  0  0  0
  3 15  1  0  0  0  0
  3 16  1  0  0  0  0
  3 17  1  0  0  0  0
  4 18  1  0  0  0  0
  4 19  1  0  0  0  0
  5 20  1  0  0  0  0
  5 21  1  0  0  0  0
  6 22  1  0  0  0  0
  6 23  1  0  0  0  0
  7 24  1  0  0  0  0
  7 25  1  0  0  0  0
  8 26  1  0  0  0  0
  8 27  1  0  0  0  0
  9 28  1  0  0  0  0
  9 29  1  0  0  0  0
 10 30  1  0  0  0  0
M  END
$$$$
