C12H24O
APtclcactv05262212103D 0   0.00000     0.00000
 
 37 36  0  0  0  0  0  0  0  0999 V2000
    7.4653    0.3077    0.1126 C   0  0  0  0  0  0  0  0  0  0  0  0
    6.1988   -0.5489    0.0551 C   0  0  0  0  0  0  0  0  0  0  0  0
    4.9680    0.3599    0.0565 C   0  0  0  0  0  0  0  0  0  0  0  0
    3.7015   -0.4967   -0.0009 C   0  0  0  0  0  0  0  0  0  0  0  0
    2.4707    0.4121    0.0005 C   0  0  0  0  0  0  0  0  0  0  0  0
    1.2042   -0.4445   -0.0570 C   0  0  0  0  0  0  0  0  0  0  0  0
   -0.0266    0.4642   -0.0556 C   0  0  0  0  0  0  0  0  0  0  0  0
   -1.2931   -0.3924   -0.1130 C   0  0  0  0  0  0  0  0  0  0  0  0
   -2.5239    0.5164   -0.1117 C   0  0  0  0  0  0  0  0  0  0  0  0
   -3.7904   -0.3402   -0.1691 C   0  0  0  0  0  0  0  0  0  0  0  0
   -5.0212    0.5686   -0.1677 C   0  0  0  0  0  0  0  0  0  0  0  0
   -6.2686   -0.2751   -0.2243 C   0  0  0  0  0  0  0  0  0  0  0  0
   -7.1245   -0.1446    0.6176 O   0  0  0  0  0  0  0  0  0  0  0  0
    7.4574    0.9073    1.0228 H   0  0  0  0  0  0  0  0  0  0  0  0
    8.3422   -0.3397    0.1116 H   0  0  0  0  0  0  0  0  0  0  0  0
    7.4985    0.9658   -0.7557 H   0  0  0  0  0  0  0  0  0  0  0  0
    6.2067   -1.1485   -0.8551 H   0  0  0  0  0  0  0  0  0  0  0  0
    6.1656   -1.2069    0.9234 H   0  0  0  0  0  0  0  0  0  0  0  0
    4.9601    0.9595    0.9667 H   0  0  0  0  0  0  0  0  0  0  0  0
    5.0012    1.0179   -0.8118 H   0  0  0  0  0  0  0  0  0  0  0  0
    3.7094   -1.0963   -0.9111 H   0  0  0  0  0  0  0  0  0  0  0  0
    3.6683   -1.1548    0.8674 H   0  0  0  0  0  0  0  0  0  0  0  0
    2.4628    1.0117    0.9107 H   0  0  0  0  0  0  0  0  0  0  0  0
    2.5039    1.0701   -0.8678 H   0  0  0  0  0  0  0  0  0  0  0  0
    1.2121   -1.0441   -0.9672 H   0  0  0  0  0  0  0  0  0  0  0  0
    1.1710   -1.1026    0.8113 H   0  0  0  0  0  0  0  0  0  0  0  0
   -0.0345    1.0639    0.8546 H   0  0  0  0  0  0  0  0  0  0  0  0
    0.0066    1.1223   -0.9239 H   0  0  0  0  0  0  0  0  0  0  0  0
   -1.2852   -0.9920   -1.0233 H   0  0  0  0  0  0  0  0  0  0  0  0
   -1.3263   -1.0504    0.7553 H   0  0  0  0  0  0  0  0  0  0  0  0
   -2.5318    1.1160    0.7986 H   0  0  0  0  0  0  0  0  0  0  0  0
   -2.4907    1.1745   -0.9800 H   0  0  0  0  0  0  0  0  0  0  0  0
   -3.7825   -0.9398   -1.0793 H   0  0  0  0  0  0  0  0  0  0  0  0
   -3.8236   -0.9982    0.6992 H   0  0  0  0  0  0  0  0  0  0  0  0
   -5.0292    1.1682    0.7425 H   0  0  0  0  0  0  0  0  0  0  0  0
   -4.9880    1.2266   -1.0360 H   0  0  0  0  0  0  0  0  0  0  0  0
   -6.3971   -0.9964   -1.0177 H   0  0  0  0  0  0  0  0  0  0  0  0
  1  2  1  0  0  0  0
  2  3  1  0  0  0  0
  3  4  1  0  0  0  0
  4  5  1  0  0  0  0
  5  6  1  0  0  0  0
  6  7  1  0  0  0  0
  7  8  1  0  0  0  0
  8  9  1  0  0  0  0
  9 10  1  0  0  0  0
 10 11  1  0  0  0  0
 11 12  1  0  0  0  0
 12 13  2  0  0  0  0
  1 14  1  0  0  0  0
  1 15  1  0  0  0  0
  1 16  1  0  0  0  0
  2 17  1  0  0  0  0
  2 18  1  0  0  0  0
  3 19  1  0  0  0  0
  3 20  1  0  0  0  0
  4 21  1  0  0  0  0
  4 22  1  0  0  0  0
  5 23  1  0  0  0  0
  5 24  1  0  0  0  0
  6 25  1  0  0  0  0
  6 26  1  0  0  0  0
  7 27  1  0  0  0  0
  7 28  1  0  0  0  0
  8 29  1  0  0  0  0
  8 30  1  0  0  0  0
  9 31  1  0  0  0  0
  9 32  1  0  0  0  0
 10 33  1  0  0  0  0
 10 34  1  0  0  0  0
 11 35  1  0  0  0  0
 11 36  1  0  0  0  0
 12 37  1  0  0  0  0
M  END
$$$$
