C14H20O
APtclcactv05262212113D 0   0.00000     0.00000
 
 35 35  0  0  0  0  0  0  0  0999 V2000
    2.8039    1.5186    0.8100 C   0  0  0  0  0  0  0  0  0  0  0  0
    3.0823    0.1057    0.2932 C   0  0  0  0  0  0  0  0  0  0  0  0
    2.2805   -0.1362   -0.9872 C   0  0  0  0  0  0  0  0  0  0  0  0
    0.8075   -0.1108   -0.6699 C   0  0  0  0  0  0  0  0  0  0  0  0
    0.1076    1.0797   -0.7318 C   0  0  0  0  0  0  0  0  0  0  0  0
   -1.2436    1.1030   -0.4407 C   0  0  0  0  0  0  0  0  0  0  0  0
   -1.8949   -0.0642   -0.0881 C   0  0  0  0  0  0  0  0  0  0  0  0
   -1.1952   -1.2548   -0.0271 C   0  0  0  0  0  0  0  0  0  0  0  0
    0.1551   -1.2789   -0.3224 C   0  0  0  0  0  0  0  0  0  0  0  0
   -3.3677   -0.0386    0.2302 C   0  0  0  0  0  0  0  0  0  0  0  0
   -4.1442    0.4643   -0.9884 C   0  0  0  0  0  0  0  0  0  0  0  0
   -3.8370   -1.4505    0.5868 C   0  0  0  0  0  0  0  0  0  0  0  0
   -3.6171    0.8963    1.4153 C   0  0  0  0  0  0  0  0  0  0  0  0
    4.5532   -0.0412    0.0002 C   0  0  0  0  0  0  0  0  0  0  0  0
    5.2039   -0.8770    0.5802 O   0  0  0  0  0  0  0  0  0  0  0  0
    3.0982    2.2466    0.0540 H   0  0  0  0  0  0  0  0  0  0  0  0
    1.7400    1.6249    1.0220 H   0  0  0  0  0  0  0  0  0  0  0  0
    3.3751    1.6910    1.7222 H   0  0  0  0  0  0  0  0  0  0  0  0
    2.7879   -0.6222    1.0492 H   0  0  0  0  0  0  0  0  0  0  0  0
    2.5095    0.6448   -1.7123 H   0  0  0  0  0  0  0  0  0  0  0  0
    2.5457   -1.1079   -1.4039 H   0  0  0  0  0  0  0  0  0  0  0  0
    0.6164    1.9916   -1.0073 H   0  0  0  0  0  0  0  0  0  0  0  0
   -1.7903    2.0332   -0.4884 H   0  0  0  0  0  0  0  0  0  0  0  0
   -1.7039   -2.1667    0.2487 H   0  0  0  0  0  0  0  0  0  0  0  0
    0.7018   -2.2091   -0.2747 H   0  0  0  0  0  0  0  0  0  0  0  0
   -3.9665   -0.2018   -1.8327 H   0  0  0  0  0  0  0  0  0  0  0  0
   -5.2094    0.4828   -0.7582 H   0  0  0  0  0  0  0  0  0  0  0  0
   -3.8098    1.4702   -1.2425 H   0  0  0  0  0  0  0  0  0  0  0  0
   -3.2838   -1.8088    1.4550 H   0  0  0  0  0  0  0  0  0  0  0  0
   -4.9022   -1.4320    0.8171 H   0  0  0  0  0  0  0  0  0  0  0  0
   -3.6593   -2.1166   -0.2575 H   0  0  0  0  0  0  0  0  0  0  0  0
   -3.2828    1.9022    1.1612 H   0  0  0  0  0  0  0  0  0  0  0  0
   -4.6824    0.9148    1.6456 H   0  0  0  0  0  0  0  0  0  0  0  0
   -3.0639    0.5380    2.2835 H   0  0  0  0  0  0  0  0  0  0  0  0
    5.0254    0.6009   -0.7286 H   0  0  0  0  0  0  0  0  0  0  0  0
  1  2  1  0  0  0  0
  2  3  1  0  0  0  0
  3  4  1  0  0  0  0
  4  5  1  0  0  0  0
  5  6  2  0  0  0  0
  6  7  1  0  0  0  0
  7  8  2  0  0  0  0
  8  9  1  0  0  0  0
  4  9  2  0  0  0  0
  7 10  1  0  0  0  0
 10 11  1  0  0  0  0
 10 12  1  0  0  0  0
 10 13  1  0  0  0  0
  2 14  1  0  0  0  0
 14 15  2  0  0  0  0
  1 16  1  0  0  0  0
  1 17  1  0  0  0  0
  1 18  1  0  0  0  0
  2 19  1  0  0  0  0
  3 20  1  0  0  0  0
  3 21  1  0  0  0  0
  5 22  1  0  0  0  0
  6 23  1  0  0  0  0
  8 24  1  0  0  0  0
  9 25  1  0  0  0  0
 11 26  1  0  0  0  0
 11 27  1  0  0  0  0
 11 28  1  0  0  0  0
 12 29  1  0  0  0  0
 12 30  1  0  0  0  0
 12 31  1  0  0  0  0
 13 32  1  0  0  0  0
 13 33  1  0  0  0  0
 13 34  1  0  0  0  0
 14 35  1  0  0  0  0
M  END
$$$$
