C10H16
APtclcactv05262212242D 0   0.00000     0.00000
 
 26 26  0  0  0  0  0  0  0  0999 V2000
    3.7321    2.2500    0.0000 C   0  0  0  0  0  0  0  0  0  0  0  0
    2.8660    1.7500    0.0000 C   0  0  0  0  0  0  0  0  0  0  0  0
    2.0000    2.2500    0.0000 C   0  0  0  0  0  0  0  0  0  0  0  0
    2.8660    0.7500    0.0000 C   0  0  0  0  0  0  0  0  0  0  0  0
    2.0000    0.2500    0.0000 C   0  0  0  0  0  0  0  0  0  0  0  0
    2.0000   -0.7500    0.0000 C   0  0  0  0  0  0  0  0  0  0  0  0
    2.8660   -1.2500    0.0000 C   0  0  0  0  0  0  0  0  0  0  0  0
    3.7321   -0.7500    0.0000 C   0  0  0  0  0  0  0  0  0  0  0  0
    3.7321    0.2500    0.0000 C   0  0  0  0  0  0  0  0  0  0  0  0
    2.8660   -2.2500    0.0000 C   0  0  0  0  0  0  0  0  0  0  0  0
    4.0421    1.7131    0.0000 H   0  0  0  0  0  0  0  0  0  0  0  0
    4.2690    2.5600    0.0000 H   0  0  0  0  0  0  0  0  0  0  0  0
    3.4221    2.7869    0.0000 H   0  0  0  0  0  0  0  0  0  0  0  0
    2.0000    2.8700    0.0000 H   0  0  0  0  0  0  0  0  0  0  0  0
    1.4631    1.9400    0.0000 H   0  0  0  0  0  0  0  0  0  0  0  0
    3.4030    1.0600    0.0000 H   0  0  0  0  0  0  0  0  0  0  0  0
    1.7879    0.8326    0.0000 H   0  0  0  0  0  0  0  0  0  0  0  0
    1.3894    0.1423    0.0000 H   0  0  0  0  0  0  0  0  0  0  0  0
    1.3894   -0.6423    0.0000 H   0  0  0  0  0  0  0  0  0  0  0  0
    1.7879   -1.3326    0.0000 H   0  0  0  0  0  0  0  0  0  0  0  0
    4.2690   -1.0600    0.0000 H   0  0  0  0  0  0  0  0  0  0  0  0
    4.3426    0.1423    0.0000 H   0  0  0  0  0  0  0  0  0  0  0  0
    3.9441    0.8326    0.0000 H   0  0  0  0  0  0  0  0  0  0  0  0
    2.2460   -2.2500    0.0000 H   0  0  0  0  0  0  0  0  0  0  0  0
    2.8660   -2.8700    0.0000 H   0  0  0  0  0  0  0  0  0  0  0  0
    3.4860   -2.2500    0.0000 H   0  0  0  0  0  0  0  0  0  0  0  0
  1  2  1  0  0  0  0
  2  3  2  0  0  0  0
  2  4  1  0  0  0  0
  4  5  1  0  0  0  0
  5  6  1  0  0  0  0
  6  7  1  0  0  0  0
  7  8  2  0  0  0  0
  8  9  1  0  0  0  0
  4  9  1  0  0  0  0
  7 10  1  0  0  0  0
  1 11  1  0  0  0  0
  1 12  1  0  0  0  0
  1 13  1  0  0  0  0
  3 14  1  0  0  0  0
  3 15  1  0  0  0  0
  4 16  1  0  0  0  0
  5 17  1  0  0  0  0
  5 18  1  0  0  0  0
  6 19  1  0  0  0  0
  6 20  1  0  0  0  0
  8 21  1  0  0  0  0
  9 22  1  0  0  0  0
  9 23  1  0  0  0  0
 10 24  1  0  0  0  0
 10 25  1  0  0  0  0
 10 26  1  0  0  0  0
M  END
$$$$
