C13H22O2
APtclcactv05262212113D 0   0.00000     0.00000
 
 37 37  0  0  0  0  0  0  0  0999 V2000
    3.7738    0.6129    1.5851 C   0  0  0  0  0  0  0  0  0  0  0  0
    4.0320   -0.1001    0.2563 C   0  0  0  0  0  0  0  0  0  0  0  0
    5.4322    0.2538   -0.2488 C   0  0  0  0  0  0  0  0  0  0  0  0
    3.9377   -1.5131    0.4477 O   0  0  0  0  0  0  0  0  0  0  0  0
    2.9909    0.3458   -0.7724 C   0  0  0  0  0  0  0  0  0  0  0  0
    1.5868    0.1058   -0.2140 C   0  0  0  0  0  0  0  0  0  0  0  0
    0.5458    0.5517   -1.2427 C   0  0  0  0  0  0  0  0  0  0  0  0
   -0.8372    0.3153   -0.6927 C   0  0  0  0  0  0  0  0  0  0  0  0
   -1.4327    1.3018   -0.1030 C   0  0  0  0  0  0  0  0  0  0  0  0
   -2.8036    1.2162    0.5015 C   0  0  0  0  0  0  0  0  0  0  0  0
   -3.5410   -0.0121   -0.0362 C   0  0  0  0  0  0  0  0  0  0  0  0
   -2.6169   -1.2293    0.0963 C   0  0  0  0  0  0  0  0  0  0  0  0
   -1.4408   -1.0475   -0.8680 C   0  0  0  0  0  0  0  0  0  0  0  0
   -4.7969   -0.2400    0.7649 C   0  0  0  0  0  0  0  0  0  0  0  0
   -5.8736   -0.2207    0.2183 O   0  0  0  0  0  0  0  0  0  0  0  0
    3.8457    1.6907    1.4392 H   0  0  0  0  0  0  0  0  0  0  0  0
    2.7763    0.3607    1.9450 H   0  0  0  0  0  0  0  0  0  0  0  0
    4.5155    0.2952    2.3180 H   0  0  0  0  0  0  0  0  0  0  0  0
    6.1739   -0.0638    0.4841 H   0  0  0  0  0  0  0  0  0  0  0  0
    5.6161   -0.2541   -1.1955 H   0  0  0  0  0  0  0  0  0  0  0  0
    5.5041    1.3316   -0.3948 H   0  0  0  0  0  0  0  0  0  0  0  0
    4.5699   -1.8663    1.0885 H   0  0  0  0  0  0  0  0  0  0  0  0
    3.1211    1.4070   -0.9845 H   0  0  0  0  0  0  0  0  0  0  0  0
    3.1194   -0.2267   -1.6910 H   0  0  0  0  0  0  0  0  0  0  0  0
    1.4567   -0.9554   -0.0019 H   0  0  0  0  0  0  0  0  0  0  0  0
    1.4584    0.6783    0.7046 H   0  0  0  0  0  0  0  0  0  0  0  0
    0.6759    1.6129   -1.4548 H   0  0  0  0  0  0  0  0  0  0  0  0
    0.6742   -0.0209   -2.1613 H   0  0  0  0  0  0  0  0  0  0  0  0
   -0.9104    2.2451   -0.0420 H   0  0  0  0  0  0  0  0  0  0  0  0
   -2.7164    1.1395    1.5853 H   0  0  0  0  0  0  0  0  0  0  0  0
   -3.3666    2.1148    0.2490 H   0  0  0  0  0  0  0  0  0  0  0  0
   -3.7947    0.1428   -1.0849 H   0  0  0  0  0  0  0  0  0  0  0  0
   -2.2487   -1.3000    1.1198 H   0  0  0  0  0  0  0  0  0  0  0  0
   -3.1649   -2.1353   -0.1626 H   0  0  0  0  0  0  0  0  0  0  0  0
   -1.7926   -1.1640   -1.8931 H   0  0  0  0  0  0  0  0  0  0  0  0
   -0.6831   -1.8030   -0.6603 H   0  0  0  0  0  0  0  0  0  0  0  0
   -4.7341   -0.4204    1.8278 H   0  0  0  0  0  0  0  0  0  0  0  0
  1  2  1  0  0  0  0
  2  3  1  0  0  0  0
  2  4  1  0  0  0  0
  2  5  1  0  0  0  0
  5  6  1  0  0  0  0
  6  7  1  0  0  0  0
  7  8  1  0  0  0  0
  8  9  2  0  0  0  0
  9 10  1  0  0  0  0
 10 11  1  0  0  0  0
 11 12  1  0  0  0  0
 12 13  1  0  0  0  0
  8 13  1  0  0  0  0
 11 14  1  0  0  0  0
 14 15  2  0  0  0  0
  1 16  1  0  0  0  0
  1 17  1  0  0  0  0
  1 18  1  0  0  0  0
  3 19  1  0  0  0  0
  3 20  1  0  0  0  0
  3 21  1  0  0  0  0
  4 22  1  0  0  0  0
  5 23  1  0  0  0  0
  5 24  1  0  0  0  0
  6 25  1  0  0  0  0
  6 26  1  0  0  0  0
  7 27  1  0  0  0  0
  7 28  1  0  0  0  0
  9 29  1  0  0  0  0
 10 30  1  0  0  0  0
 10 31  1  0  0  0  0
 11 32  1  0  0  0  0
 12 33  1  0  0  0  0
 12 34  1  0  0  0  0
 13 35  1  0  0  0  0
 13 36  1  0  0  0  0
 14 37  1  0  0  0  0
M  END
$$$$
