C10H20O2
APtclcactv05262212103D 0   0.00000     0.00000
 
 32 31  0  0  0  0  0  0  0  0999 V2000
    6.5580   -0.5251   -0.0000 C   0  0  0  0  0  0  0  0  0  0  0  0
    5.3535    0.4184    0.0000 C   0  0  0  0  0  0  0  0  0  0  0  0
    4.0625   -0.4026   -0.0000 C   0  0  0  0  0  0  0  0  0  0  0  0
    2.8581    0.5409    0.0000 C   0  0  0  0  0  0  0  0  0  0  0  0
    1.5670   -0.2801   -0.0000 C   0  0  0  0  0  0  0  0  0  0  0  0
    0.3626    0.6634   -0.0000 C   0  0  0  0  0  0  0  0  0  0  0  0
   -0.9285   -0.1576   -0.0000 C   0  0  0  0  0  0  0  0  0  0  0  0
   -2.1329    0.7859   -0.0000 C   0  0  0  0  0  0  0  0  0  0  0  0
   -3.4045   -0.0227   -0.0000 C   0  0  0  0  0  0  0  0  0  0  0  0
   -3.3528   -1.2299    0.0000 O   0  0  0  0  0  0  0  0  0  0  0  0
   -4.5947    0.5980   -0.0000 O   0  0  0  0  0  0  0  0  0  0  0  0
   -5.7774   -0.2442    0.0000 C   0  0  0  0  0  0  0  0  0  0  0  0
    7.4777    0.0598    0.0000 H   0  0  0  0  0  0  0  0  0  0  0  0
    6.5271   -1.1537    0.8900 H   0  0  0  0  0  0  0  0  0  0  0  0
    6.5271   -1.1537   -0.8900 H   0  0  0  0  0  0  0  0  0  0  0  0
    5.3844    1.0470    0.8900 H   0  0  0  0  0  0  0  0  0  0  0  0
    5.3844    1.0470   -0.8900 H   0  0  0  0  0  0  0  0  0  0  0  0
    4.0316   -1.0312   -0.8900 H   0  0  0  0  0  0  0  0  0  0  0  0
    4.0316   -1.0312    0.8900 H   0  0  0  0  0  0  0  0  0  0  0  0
    2.8889    1.1695    0.8900 H   0  0  0  0  0  0  0  0  0  0  0  0
    2.8889    1.1695   -0.8900 H   0  0  0  0  0  0  0  0  0  0  0  0
    1.5361   -0.9087   -0.8900 H   0  0  0  0  0  0  0  0  0  0  0  0
    1.5361   -0.9087    0.8900 H   0  0  0  0  0  0  0  0  0  0  0  0
    0.3934    1.2920    0.8900 H   0  0  0  0  0  0  0  0  0  0  0  0
    0.3934    1.2920   -0.8900 H   0  0  0  0  0  0  0  0  0  0  0  0
   -0.9593   -0.7862   -0.8900 H   0  0  0  0  0  0  0  0  0  0  0  0
   -0.9593   -0.7862    0.8900 H   0  0  0  0  0  0  0  0  0  0  0  0
   -2.1020    1.4145    0.8900 H   0  0  0  0  0  0  0  0  0  0  0  0
   -2.1020    1.4145   -0.8900 H   0  0  0  0  0  0  0  0  0  0  0  0
   -6.6695    0.3821   -0.0000 H   0  0  0  0  0  0  0  0  0  0  0  0
   -5.7754   -0.8735   -0.8900 H   0  0  0  0  0  0  0  0  0  0  0  0
   -5.7754   -0.8735    0.8900 H   0  0  0  0  0  0  0  0  0  0  0  0
  1  2  1  0  0  0  0
  2  3  1  0  0  0  0
  3  4  1  0  0  0  0
  4  5  1  0  0  0  0
  5  6  1  0  0  0  0
  6  7  1  0  0  0  0
  7  8  1  0  0  0  0
  8  9  1  0  0  0  0
  9 10  2  0  0  0  0
  9 11  1  0  0  0  0
 11 12  1  0  0  0  0
  1 13  1  0  0  0  0
  1 14  1  0  0  0  0
  1 15  1  0  0  0  0
  2 16  1  0  0  0  0
  2 17  1  0  0  0  0
  3 18  1  0  0  0  0
  3 19  1  0  0  0  0
  4 20  1  0  0  0  0
  4 21  1  0  0  0  0
  5 22  1  0  0  0  0
  5 23  1  0  0  0  0
  6 24  1  0  0  0  0
  6 25  1  0  0  0  0
  7 26  1  0  0  0  0
  7 27  1  0  0  0  0
  8 28  1  0  0  0  0
  8 29  1  0  0  0  0
 12 30  1  0  0  0  0
 12 31  1  0  0  0  0
 12 32  1  0  0  0  0
M  END
$$$$
