CH4S2
APtclcactv05262212113D 0   0.00000     0.00000
 
  7  6  0  0  0  0  0  0  0  0999 V2000
    1.4811   -0.2216   -0.0000 S   0  0  0  0  0  0  0  0  0  0  0  0
   -0.0000    0.8257    0.0000 C   0  0  0  0  0  0  0  0  0  0  0  0
   -1.4811   -0.2216    0.0000 S   0  0  0  0  0  0  0  0  0  0  0  0
    2.4848    0.6738    0.0000 H   0  0  0  0  0  0  0  0  0  0  0  0
    0.0000    1.4550    0.8900 H   0  0  0  0  0  0  0  0  0  0  0  0
   -0.0000    1.4550   -0.8900 H   0  0  0  0  0  0  0  0  0  0  0  0
   -2.4848    0.6738   -0.0000 H   0  0  0  0  0  0  0  0  0  0  0  0
  1  2  1  0  0  0  0
  2  3  1  0  0  0  0
  1  4  1  0  0  0  0
  2  5  1  0  0  0  0
  2  6  1  0  0  0  0
  3  7  1  0  0  0  0
M  END
$$$$
