C10H12O
APtclcactv05262212113D 0   0.00000     0.00000
 
 23 23  0  0  0  0  0  0  0  0999 V2000
   -1.4384    1.5434   -0.7466 C   0  0  0  0  0  0  0  0  0  0  0  0
   -1.6793    0.1226   -0.2324 C   0  0  0  0  0  0  0  0  0  0  0  0
   -0.7473   -0.1573    0.9482 C   0  0  0  0  0  0  0  0  0  0  0  0
    0.6830   -0.1422    0.4737 C   0  0  0  0  0  0  0  0  0  0  0  0
    1.4023    1.0382    0.4843 C   0  0  0  0  0  0  0  0  0  0  0  0
    2.7142    1.0521    0.0490 C   0  0  0  0  0  0  0  0  0  0  0  0
    3.3070   -0.1146   -0.3965 C   0  0  0  0  0  0  0  0  0  0  0  0
    2.5880   -1.2952   -0.4063 C   0  0  0  0  0  0  0  0  0  0  0  0
    1.2774   -1.3099    0.0331 C   0  0  0  0  0  0  0  0  0  0  0  0
   -3.1119   -0.0135    0.2152 C   0  0  0  0  0  0  0  0  0  0  0  0
   -3.8332   -0.8283   -0.3083 O   0  0  0  0  0  0  0  0  0  0  0  0
   -0.4023    1.6418   -1.0704 H   0  0  0  0  0  0  0  0  0  0  0  0
   -2.1024    1.7428   -1.5877 H   0  0  0  0  0  0  0  0  0  0  0  0
   -1.6390    2.2577    0.0519 H   0  0  0  0  0  0  0  0  0  0  0  0
   -1.4788   -0.5916   -1.0310 H   0  0  0  0  0  0  0  0  0  0  0  0
   -0.8855    0.6099    1.7100 H   0  0  0  0  0  0  0  0  0  0  0  0
   -0.9796   -1.1349    1.3706 H   0  0  0  0  0  0  0  0  0  0  0  0
    0.9392    1.9497    0.8324 H   0  0  0  0  0  0  0  0  0  0  0  0
    3.2760    1.9744    0.0567 H   0  0  0  0  0  0  0  0  0  0  0  0
    4.3318   -0.1036   -0.7373 H   0  0  0  0  0  0  0  0  0  0  0  0
    3.0510   -2.2066   -0.7547 H   0  0  0  0  0  0  0  0  0  0  0  0
    0.7156   -2.2322    0.0254 H   0  0  0  0  0  0  0  0  0  0  0  0
   -3.4934    0.6177    1.0041 H   0  0  0  0  0  0  0  0  0  0  0  0
  1  2  1  0  0  0  0
  2  3  1  0  0  0  0
  3  4  1  0  0  0  0
  4  5  1  0  0  0  0
  5  6  2  0  0  0  0
  6  7  1  0  0  0  0
  7  8  2  0  0  0  0
  8  9  1  0  0  0  0
  4  9  2  0  0  0  0
  2 10  1  0  0  0  0
 10 11  2  0  0  0  0
  1 12  1  0  0  0  0
  1 13  1  0  0  0  0
  1 14  1  0  0  0  0
  2 15  1  0  0  0  0
  3 16  1  0  0  0  0
  3 17  1  0  0  0  0
  5 18  1  0  0  0  0
  6 19  1  0  0  0  0
  7 20  1  0  0  0  0
  8 21  1  0  0  0  0
  9 22  1  0  0  0  0
 10 23  1  0  0  0  0
M  END
$$$$
