C6H8OS2
APtclcactv05262212113D 0   0.00000     0.00000
 
 17 17  0  0  0  0  0  0  0  0999 V2000
    3.1357   -0.8737   -0.7046 C   0  0  0  0  0  0  0  0  0  0  0  0
    1.8526   -0.7265    0.5691 S   0  0  0  0  0  0  0  0  0  0  0  0
    1.2061    1.2067    0.3511 S   0  0  0  0  0  0  0  0  0  0  0  0
   -0.0342    1.0761   -0.9662 C   0  0  0  0  0  0  0  0  0  0  0  0
   -1.2459    0.3474   -0.4449 C   0  0  0  0  0  0  0  0  0  0  0  0
   -1.4427   -0.9805   -0.4879 O   0  0  0  0  0  0  0  0  0  0  0  0
   -2.6294   -1.2755    0.0675 C   0  0  0  0  0  0  0  0  0  0  0  0
   -3.2055   -0.1297    0.4732 C   0  0  0  0  0  0  0  0  0  0  0  0
   -2.3112    0.9160    0.1477 C   0  0  0  0  0  0  0  0  0  0  0  0
    3.9230   -0.1446   -0.5133 H   0  0  0  0  0  0  0  0  0  0  0  0
    3.5575   -1.8785   -0.6810 H   0  0  0  0  0  0  0  0  0  0  0  0
    2.6976   -0.6866   -1.6850 H   0  0  0  0  0  0  0  0  0  0  0  0
   -0.3236    2.0748   -1.2931 H   0  0  0  0  0  0  0  0  0  0  0  0
    0.3864    0.5259   -1.8080 H   0  0  0  0  0  0  0  0  0  0  0  0
   -3.0500   -2.2649    0.1705 H   0  0  0  0  0  0  0  0  0  0  0  0
   -4.1652   -0.0282    0.9579 H   0  0  0  0  0  0  0  0  0  0  0  0
   -2.4582    1.9697    0.3333 H   0  0  0  0  0  0  0  0  0  0  0  0
  1  2  1  0  0  0  0
  2  3  1  0  0  0  0
  3  4  1  0  0  0  0
  4  5  1  0  0  0  0
  5  6  1  0  0  0  0
  6  7  1  0  0  0  0
  7  8  2  0  0  0  0
  8  9  1  0  0  0  0
  5  9  2  0  0  0  0
  1 10  1  0  0  0  0
  1 11  1  0  0  0  0
  1 12  1  0  0  0  0
  4 13  1  0  0  0  0
  4 14  1  0  0  0  0
  7 15  1  0  0  0  0
  8 16  1  0  0  0  0
  9 17  1  0  0  0  0
M  END
$$$$
