C11H22O2
APtclcactv05262212103D 0   0.00000     0.00000
 
 35 34  0  0  0  0  0  0  0  0999 V2000
    7.2535    0.1933    0.0000 C   0  0  0  0  0  0  0  0  0  0  0  0
    5.9539   -0.6142   -0.0000 C   0  0  0  0  0  0  0  0  0  0  0  0
    4.7594    0.3419    0.0000 C   0  0  0  0  0  0  0  0  0  0  0  0
    3.4598   -0.4656   -0.0000 C   0  0  0  0  0  0  0  0  0  0  0  0
    2.2653    0.4905    0.0000 C   0  0  0  0  0  0  0  0  0  0  0  0
    0.9658   -0.3170   -0.0000 C   0  0  0  0  0  0  0  0  0  0  0  0
   -0.2287    0.6391   -0.0000 C   0  0  0  0  0  0  0  0  0  0  0  0
   -1.5283   -0.1684   -0.0000 C   0  0  0  0  0  0  0  0  0  0  0  0
   -2.7228    0.7877   -0.0000 C   0  0  0  0  0  0  0  0  0  0  0  0
   -4.0028   -0.0076   -0.0000 C   0  0  0  0  0  0  0  0  0  0  0  0
   -3.9637   -1.2152    0.0000 O   0  0  0  0  0  0  0  0  0  0  0  0
   -5.1864    0.6256   -0.0000 O   0  0  0  0  0  0  0  0  0  0  0  0
   -6.3779   -0.2043    0.0000 C   0  0  0  0  0  0  0  0  0  0  0  0
    7.2909    0.8215    0.8900 H   0  0  0  0  0  0  0  0  0  0  0  0
    8.1044   -0.4878    0.0000 H   0  0  0  0  0  0  0  0  0  0  0  0
    7.2909    0.8215   -0.8900 H   0  0  0  0  0  0  0  0  0  0  0  0
    5.9165   -1.2423   -0.8900 H   0  0  0  0  0  0  0  0  0  0  0  0
    5.9165   -1.2423    0.8900 H   0  0  0  0  0  0  0  0  0  0  0  0
    4.7968    0.9701    0.8900 H   0  0  0  0  0  0  0  0  0  0  0  0
    4.7968    0.9701   -0.8900 H   0  0  0  0  0  0  0  0  0  0  0  0
    3.4224   -1.0937   -0.8900 H   0  0  0  0  0  0  0  0  0  0  0  0
    3.4224   -1.0937    0.8900 H   0  0  0  0  0  0  0  0  0  0  0  0
    2.3028    1.1187    0.8900 H   0  0  0  0  0  0  0  0  0  0  0  0
    2.3028    1.1187   -0.8900 H   0  0  0  0  0  0  0  0  0  0  0  0
    0.9284   -0.9451   -0.8900 H   0  0  0  0  0  0  0  0  0  0  0  0
    0.9284   -0.9451    0.8900 H   0  0  0  0  0  0  0  0  0  0  0  0
   -0.1913    1.2673    0.8900 H   0  0  0  0  0  0  0  0  0  0  0  0
   -0.1913    1.2673   -0.8900 H   0  0  0  0  0  0  0  0  0  0  0  0
   -1.5657   -0.7965   -0.8900 H   0  0  0  0  0  0  0  0  0  0  0  0
   -1.5657   -0.7965    0.8900 H   0  0  0  0  0  0  0  0  0  0  0  0
   -2.6853    1.4159    0.8900 H   0  0  0  0  0  0  0  0  0  0  0  0
   -2.6853    1.4159   -0.8900 H   0  0  0  0  0  0  0  0  0  0  0  0
   -7.2633    0.4314    0.0000 H   0  0  0  0  0  0  0  0  0  0  0  0
   -6.3824   -0.8335   -0.8900 H   0  0  0  0  0  0  0  0  0  0  0  0
   -6.3824   -0.8335    0.8900 H   0  0  0  0  0  0  0  0  0  0  0  0
  1  2  1  0  0  0  0
  2  3  1  0  0  0  0
  3  4  1  0  0  0  0
  4  5  1  0  0  0  0
  5  6  1  0  0  0  0
  6  7  1  0  0  0  0
  7  8  1  0  0  0  0
  8  9  1  0  0  0  0
  9 10  1  0  0  0  0
 10 11  2  0  0  0  0
 10 12  1  0  0  0  0
 12 13  1  0  0  0  0
  1 14  1  0  0  0  0
  1 15  1  0  0  0  0
  1 16  1  0  0  0  0
  2 17  1  0  0  0  0
  2 18  1  0  0  0  0
  3 19  1  0  0  0  0
  3 20  1  0  0  0  0
  4 21  1  0  0  0  0
  4 22  1  0  0  0  0
  5 23  1  0  0  0  0
  5 24  1  0  0  0  0
  6 25  1  0  0  0  0
  6 26  1  0  0  0  0
  7 27  1  0  0  0  0
  7 28  1  0  0  0  0
  8 29  1  0  0  0  0
  8 30  1  0  0  0  0
  9 31  1  0  0  0  0
  9 32  1  0  0  0  0
 13 33  1  0  0  0  0
 13 34  1  0  0  0  0
 13 35  1  0  0  0  0
M  END
$$$$
