C8H8O3
APtclcactv05262212103D 0   0.00000     0.00000
 
 19 19  0  0  0  0  0  0  0  0999 V2000
    3.5639   -0.5886    0.0031 C   0  0  0  0  0  0  0  0  0  0  0  0
    2.1519   -0.9270    0.0057 O   0  0  0  0  0  0  0  0  0  0  0  0
    1.2772    0.0979   -0.0068 C   0  0  0  0  0  0  0  0  0  0  0  0
    1.6833    1.2431   -0.0195 O   0  0  0  0  0  0  0  0  0  0  0  0
   -0.1722   -0.1701   -0.0051 C   0  0  0  0  0  0  0  0  0  0  0  0
   -0.6438   -1.4857    0.0094 C   0  0  0  0  0  0  0  0  0  0  0  0
   -1.9998   -1.7292    0.0109 C   0  0  0  0  0  0  0  0  0  0  0  0
   -2.8995   -0.6755   -0.0020 C   0  0  0  0  0  0  0  0  0  0  0  0
   -2.4476    0.6289   -0.0169 C   0  0  0  0  0  0  0  0  0  0  0  0
   -1.0860    0.8932   -0.0123 C   0  0  0  0  0  0  0  0  0  0  0  0
   -0.6405    2.1743   -0.0265 O   0  0  0  0  0  0  0  0  0  0  0  0
    3.7967    0.0059    0.8866 H   0  0  0  0  0  0  0  0  0  0  0  0
    4.1568   -1.5032    0.0141 H   0  0  0  0  0  0  0  0  0  0  0  0
    3.7984   -0.0144   -0.8932 H   0  0  0  0  0  0  0  0  0  0  0  0
    0.0537   -2.3101    0.0192 H   0  0  0  0  0  0  0  0  0  0  0  0
   -2.3633   -2.7461    0.0218 H   0  0  0  0  0  0  0  0  0  0  0  0
   -3.9608   -0.8759   -0.0007 H   0  0  0  0  0  0  0  0  0  0  0  0
   -3.1553    1.4447   -0.0273 H   0  0  0  0  0  0  0  0  0  0  0  0
   -0.5166    2.5574    0.8527 H   0  0  0  0  0  0  0  0  0  0  0  0
  1  2  1  0  0  0  0
  2  3  1  0  0  0  0
  3  4  2  0  0  0  0
  3  5  1  0  0  0  0
  5  6  1  0  0  0  0
  6  7  2  0  0  0  0
  7  8  1  0  0  0  0
  8  9  2  0  0  0  0
  9 10  1  0  0  0  0
  5 10  2  0  0  0  0
 10 11  1  0  0  0  0
  1 12  1  0  0  0  0
  1 13  1  0  0  0  0
  1 14  1  0  0  0  0
  6 15  1  0  0  0  0
  7 16  1  0  0  0  0
  8 17  1  0  0  0  0
  9 18  1  0  0  0  0
 11 19  1  0  0  0  0
M  END
$$$$
