C9H18O2
APtclcactv05262212103D 0   0.00000     0.00000
 
 29 28  0  0  0  0  0  0  0  0999 V2000
    5.9509   -0.1843   -0.0000 C   0  0  0  0  0  0  0  0  0  0  0  0
    4.6354    0.5969    0.0000 C   0  0  0  0  0  0  0  0  0  0  0  0
    3.4603   -0.3829   -0.0000 C   0  0  0  0  0  0  0  0  0  0  0  0
    2.1448    0.3983    0.0000 C   0  0  0  0  0  0  0  0  0  0  0  0
    0.9698   -0.5815    0.0000 C   0  0  0  0  0  0  0  0  0  0  0  0
   -0.3458    0.1997    0.0000 C   0  0  0  0  0  0  0  0  0  0  0  0
   -1.5208   -0.7802    0.0000 C   0  0  0  0  0  0  0  0  0  0  0  0
   -2.8165   -0.0107    0.0000 C   0  0  0  0  0  0  0  0  0  0  0  0
   -2.8017    1.1975   -0.0000 O   0  0  0  0  0  0  0  0  0  0  0  0
   -3.9872   -0.6675    0.0000 O   0  0  0  0  0  0  0  0  0  0  0  0
   -5.1951    0.1383   -0.0000 C   0  0  0  0  0  0  0  0  0  0  0  0
    6.0009   -0.8116    0.8900 H   0  0  0  0  0  0  0  0  0  0  0  0
    6.0009   -0.8116   -0.8900 H   0  0  0  0  0  0  0  0  0  0  0  0
    6.7880    0.5138   -0.0000 H   0  0  0  0  0  0  0  0  0  0  0  0
    4.5854    1.2243    0.8900 H   0  0  0  0  0  0  0  0  0  0  0  0
    4.5854    1.2243   -0.8900 H   0  0  0  0  0  0  0  0  0  0  0  0
    3.5104   -1.0102   -0.8900 H   0  0  0  0  0  0  0  0  0  0  0  0
    3.5104   -1.0102    0.8900 H   0  0  0  0  0  0  0  0  0  0  0  0
    2.0948    1.0256    0.8900 H   0  0  0  0  0  0  0  0  0  0  0  0
    2.0948    1.0256   -0.8900 H   0  0  0  0  0  0  0  0  0  0  0  0
    1.0198   -1.2089   -0.8900 H   0  0  0  0  0  0  0  0  0  0  0  0
    1.0198   -1.2089    0.8900 H   0  0  0  0  0  0  0  0  0  0  0  0
   -0.3958    0.8270    0.8900 H   0  0  0  0  0  0  0  0  0  0  0  0
   -0.3958    0.8270   -0.8900 H   0  0  0  0  0  0  0  0  0  0  0  0
   -1.4708   -1.4075   -0.8900 H   0  0  0  0  0  0  0  0  0  0  0  0
   -1.4708   -1.4075    0.8900 H   0  0  0  0  0  0  0  0  0  0  0  0
   -5.2122    0.7674    0.8900 H   0  0  0  0  0  0  0  0  0  0  0  0
   -5.2122    0.7674   -0.8900 H   0  0  0  0  0  0  0  0  0  0  0  0
   -6.0676   -0.5150   -0.0000 H   0  0  0  0  0  0  0  0  0  0  0  0
  1  2  1  0  0  0  0
  2  3  1  0  0  0  0
  3  4  1  0  0  0  0
  4  5  1  0  0  0  0
  5  6  1  0  0  0  0
  6  7  1  0  0  0  0
  7  8  1  0  0  0  0
  8  9  2  0  0  0  0
  8 10  1  0  0  0  0
 10 11  1  0  0  0  0
  1 12  1  0  0  0  0
  1 13  1  0  0  0  0
  1 14  1  0  0  0  0
  2 15  1  0  0  0  0
  2 16  1  0  0  0  0
  3 17  1  0  0  0  0
  3 18  1  0  0  0  0
  4 19  1  0  0  0  0
  4 20  1  0  0  0  0
  5 21  1  0  0  0  0
  5 22  1  0  0  0  0
  6 23  1  0  0  0  0
  6 24  1  0  0  0  0
  7 25  1  0  0  0  0
  7 26  1  0  0  0  0
 11 27  1  0  0  0  0
 11 28  1  0  0  0  0
 11 29  1  0  0  0  0
M  END
$$$$
