C12H16O
APtclcactv05262212242D 0   0.00000     0.00000
 
 29 29  0  0  0  0  0  0  0  0999 V2000
    5.5000    1.6160    0.0000 C   0  0  0  0  0  0  0  0  0  0  0  0
    4.5000    1.6160    0.0000 C   0  0  0  0  0  0  0  0  0  0  0  0
    4.0000    0.7500    0.0000 C   0  0  0  0  0  0  0  0  0  0  0  0
    3.0000    0.7500    0.0000 C   0  0  0  0  0  0  0  0  0  0  0  0
    2.0000    0.7500    0.0000 C   0  0  0  0  0  0  0  0  0  0  0  0
    3.0000    1.7500    0.0000 C   0  0  0  0  0  0  0  0  0  0  0  0
    3.8660    2.2500    0.0000 O   0  0  0  0  0  0  0  0  0  0  0  0
    3.0000   -0.2500    0.0000 C   0  0  0  0  0  0  0  0  0  0  0  0
    2.1340   -0.7500    0.0000 C   0  0  0  0  0  0  0  0  0  0  0  0
    2.1340   -1.7500    0.0000 C   0  0  0  0  0  0  0  0  0  0  0  0
    3.0000   -2.2500    0.0000 C   0  0  0  0  0  0  0  0  0  0  0  0
    3.8660   -1.7500    0.0000 C   0  0  0  0  0  0  0  0  0  0  0  0
    3.8660   -0.7500    0.0000 C   0  0  0  0  0  0  0  0  0  0  0  0
    5.5000    0.9960    0.0000 H   0  0  0  0  0  0  0  0  0  0  0  0
    6.1200    1.6160    0.0000 H   0  0  0  0  0  0  0  0  0  0  0  0
    5.5000    2.2360    0.0000 H   0  0  0  0  0  0  0  0  0  0  0  0
    4.6077    2.2266    0.0000 H   0  0  0  0  0  0  0  0  0  0  0  0
    3.9174    1.8281    0.0000 H   0  0  0  0  0  0  0  0  0  0  0  0
    3.8923    0.1394    0.0000 H   0  0  0  0  0  0  0  0  0  0  0  0
    4.5826    0.5379    0.0000 H   0  0  0  0  0  0  0  0  0  0  0  0
    2.0000    1.3700    0.0000 H   0  0  0  0  0  0  0  0  0  0  0  0
    1.3800    0.7500    0.0000 H   0  0  0  0  0  0  0  0  0  0  0  0
    2.0000    0.1300    0.0000 H   0  0  0  0  0  0  0  0  0  0  0  0
    2.4631    2.0600    0.0000 H   0  0  0  0  0  0  0  0  0  0  0  0
    1.5970   -0.4400    0.0000 H   0  0  0  0  0  0  0  0  0  0  0  0
    1.5970   -2.0600    0.0000 H   0  0  0  0  0  0  0  0  0  0  0  0
    3.0000   -2.8700    0.0000 H   0  0  0  0  0  0  0  0  0  0  0  0
    4.4030   -2.0600    0.0000 H   0  0  0  0  0  0  0  0  0  0  0  0
    4.4030   -0.4400    0.0000 H   0  0  0  0  0  0  0  0  0  0  0  0
  1  2  1  0  0  0  0
  2  3  1  0  0  0  0
  3  4  1  0  0  0  0
  4  5  1  0  0  0  0
  4  6  1  0  0  0  0
  6  7  2  0  0  0  0
  4  8  1  0  0  0  0
  8  9  1  0  0  0  0
  9 10  2  0  0  0  0
 10 11  1  0  0  0  0
 11 12  2  0  0  0  0
 12 13  1  0  0  0  0
  8 13  2  0  0  0  0
  1 14  1  0  0  0  0
  1 15  1  0  0  0  0
  1 16  1  0  0  0  0
  2 17  1  0  0  0  0
  2 18  1  0  0  0  0
  3 19  1  0  0  0  0
  3 20  1  0  0  0  0
  5 21  1  0  0  0  0
  5 22  1  0  0  0  0
  5 23  1  0  0  0  0
  6 24  1  0  0  0  0
  9 25  1  0  0  0  0
 10 26  1  0  0  0  0
 11 27  1  0  0  0  0
 12 28  1  0  0  0  0
 13 29  1  0  0  0  0
M  END
$$$$
