C16H30O
APtclcactv05262212103D 0   0.00000     0.00000
 
 47 47  0  0  0  0  0  0  0  0999 V2000
    4.3689   -0.0208    0.1128 C   0  0  0  0  0  0  0  0  0  0  0  0
    2.9017   -0.2842    0.4575 C   0  0  0  0  0  0  0  0  0  0  0  0
    2.0110    0.6694   -0.3414 C   0  0  0  0  0  0  0  0  0  0  0  0
    2.0479    2.0585    0.2987 C   0  0  0  0  0  0  0  0  0  0  0  0
    1.0516    2.9752   -0.4142 C   0  0  0  0  0  0  0  0  0  0  0  0
   -0.2067    3.1256    0.4432 C   0  0  0  0  0  0  0  0  0  0  0  0
   -1.4410    2.8047   -0.4020 C   0  0  0  0  0  0  0  0  0  0  0  0
   -2.5099    2.1580    0.4813 C   0  0  0  0  0  0  0  0  0  0  0  0
   -3.2462    1.0795   -0.3159 C   0  0  0  0  0  0  0  0  0  0  0  0
   -3.3086   -0.2092    0.5064 C   0  0  0  0  0  0  0  0  0  0  0  0
   -2.8990   -1.3941   -0.3706 C   0  0  0  0  0  0  0  0  0  0  0  0
   -2.1794   -2.4379    0.4859 C   0  0  0  0  0  0  0  0  0  0  0  0
   -1.0622   -3.0874   -0.3332 C   0  0  0  0  0  0  0  0  0  0  0  0
    0.2638   -2.9563    0.4186 C   0  0  0  0  0  0  0  0  0  0  0  0
    1.0693   -1.8300   -0.1762 C   0  0  0  0  0  0  0  0  0  0  0  0
    0.5310   -1.0078   -0.8780 O   0  0  0  0  0  0  0  0  0  0  0  0
    2.5465   -1.7299    0.1047 C   0  0  0  0  0  0  0  0  0  0  0  0
    4.6219    1.0092    0.3641 H   0  0  0  0  0  0  0  0  0  0  0  0
    5.0034   -0.7001    0.6820 H   0  0  0  0  0  0  0  0  0  0  0  0
    4.5265   -0.1839   -0.9533 H   0  0  0  0  0  0  0  0  0  0  0  0
    2.7440   -0.1211    1.5237 H   0  0  0  0  0  0  0  0  0  0  0  0
    2.3742    0.7322   -1.3672 H   0  0  0  0  0  0  0  0  0  0  0  0
    0.9868    0.2962   -0.3409 H   0  0  0  0  0  0  0  0  0  0  0  0
    1.7800    1.9803    1.3523 H   0  0  0  0  0  0  0  0  0  0  0  0
    3.0518    2.4734    0.2089 H   0  0  0  0  0  0  0  0  0  0  0  0
    1.5051    3.9542   -0.5688 H   0  0  0  0  0  0  0  0  0  0  0  0
    0.7848    2.5420   -1.3782 H   0  0  0  0  0  0  0  0  0  0  0  0
   -0.1555    2.4378    1.2873 H   0  0  0  0  0  0  0  0  0  0  0  0
   -0.2749    4.1490    0.8120 H   0  0  0  0  0  0  0  0  0  0  0  0
   -1.8347    3.7247   -0.8341 H   0  0  0  0  0  0  0  0  0  0  0  0
   -1.1653    2.1168   -1.2013 H   0  0  0  0  0  0  0  0  0  0  0  0
   -2.0363    1.7060    1.3527 H   0  0  0  0  0  0  0  0  0  0  0  0
   -3.2204    2.9177    0.8070 H   0  0  0  0  0  0  0  0  0  0  0  0
   -4.2581    1.4186   -0.5373 H   0  0  0  0  0  0  0  0  0  0  0  0
   -2.7143    0.8902   -1.2483 H   0  0  0  0  0  0  0  0  0  0  0  0
   -2.6280   -0.1325    1.3543 H   0  0  0  0  0  0  0  0  0  0  0  0
   -4.3254   -0.3599    0.8690 H   0  0  0  0  0  0  0  0  0  0  0  0
   -3.7879   -1.8404   -0.8166 H   0  0  0  0  0  0  0  0  0  0  0  0
   -2.2311   -1.0485   -1.1596 H   0  0  0  0  0  0  0  0  0  0  0  0
   -1.7519   -1.9547    1.3645 H   0  0  0  0  0  0  0  0  0  0  0  0
   -2.8901   -3.2019    0.8011 H   0  0  0  0  0  0  0  0  0  0  0  0
   -1.2903   -4.1422   -0.4865 H   0  0  0  0  0  0  0  0  0  0  0  0
   -0.9830   -2.5888   -1.2993 H   0  0  0  0  0  0  0  0  0  0  0  0
    0.0662   -2.7460    1.4698 H   0  0  0  0  0  0  0  0  0  0  0  0
    0.8234   -3.8877    0.3334 H   0  0  0  0  0  0  0  0  0  0  0  0
    3.1060   -2.0362   -0.7791 H   0  0  0  0  0  0  0  0  0  0  0  0
    2.8023   -2.3812    0.9405 H   0  0  0  0  0  0  0  0  0  0  0  0
  1  2  1  0  0  0  0
  2  3  1  0  0  0  0
  3  4  1  0  0  0  0
  4  5  1  0  0  0  0
  5  6  1  0  0  0  0
  6  7  1  0  0  0  0
  7  8  1  0  0  0  0
  8  9  1  0  0  0  0
  9 10  1  0  0  0  0
 10 11  1  0  0  0  0
 11 12  1  0  0  0  0
 12 13  1  0  0  0  0
 13 14  1  0  0  0  0
 14 15  1  0  0  0  0
 15 16  2  0  0  0  0
 15 17  1  0  0  0  0
  2 17  1  0  0  0  0
  1 18  1  0  0  0  0
  1 19  1  0  0  0  0
  1 20  1  0  0  0  0
  2 21  1  0  0  0  0
  3 22  1  0  0  0  0
  3 23  1  0  0  0  0
  4 24  1  0  0  0  0
  4 25  1  0  0  0  0
  5 26  1  0  0  0  0
  5 27  1  0  0  0  0
  6 28  1  0  0  0  0
  6 29  1  0  0  0  0
  7 30  1  0  0  0  0
  7 31  1  0  0  0  0
  8 32  1  0  0  0  0
  8 33  1  0  0  0  0
  9 34  1  0  0  0  0
  9 35  1  0  0  0  0
 10 36  1  0  0  0  0
 10 37  1  0  0  0  0
 11 38  1  0  0  0  0
 11 39  1  0  0  0  0
 12 40  1  0  0  0  0
 12 41  1  0  0  0  0
 13 42  1  0  0  0  0
 13 43  1  0  0  0  0
 14 44  1  0  0  0  0
 14 45  1  0  0  0  0
 17 46  1  0  0  0  0
 17 47  1  0  0  0  0
M  END
$$$$
