C12H24O2
APtclcactv05262212103D 0   0.00000     0.00000
 
 38 37  0  0  0  0  0  0  0  0999 V2000
    7.9636   -0.3189   -0.0000 C   0  0  0  0  0  0  0  0  0  0  0  0
    6.6953    0.5369    0.0000 C   0  0  0  0  0  0  0  0  0  0  0  0
    5.4657   -0.3736   -0.0000 C   0  0  0  0  0  0  0  0  0  0  0  0
    4.1974    0.4822    0.0000 C   0  0  0  0  0  0  0  0  0  0  0  0
    2.9678   -0.4282   -0.0000 C   0  0  0  0  0  0  0  0  0  0  0  0
    1.6995    0.4276    0.0000 C   0  0  0  0  0  0  0  0  0  0  0  0
    0.4699   -0.4829   -0.0000 C   0  0  0  0  0  0  0  0  0  0  0  0
   -0.7984    0.3729    0.0000 C   0  0  0  0  0  0  0  0  0  0  0  0
   -2.0280   -0.5376    0.0000 C   0  0  0  0  0  0  0  0  0  0  0  0
   -3.2962    0.3182   -0.0000 C   0  0  0  0  0  0  0  0  0  0  0  0
   -4.4632   -0.5458    0.0000 O   0  0  0  0  0  0  0  0  0  0  0  0
   -5.6646    0.0527   -0.0000 C   0  0  0  0  0  0  0  0  0  0  0  0
   -5.7388    1.2587   -0.0000 O   0  0  0  0  0  0  0  0  0  0  0  0
   -6.9210   -0.7794    0.0000 C   0  0  0  0  0  0  0  0  0  0  0  0
    8.8396    0.3297    0.0000 H   0  0  0  0  0  0  0  0  0  0  0  0
    7.9773   -0.9481    0.8900 H   0  0  0  0  0  0  0  0  0  0  0  0
    7.9773   -0.9481   -0.8900 H   0  0  0  0  0  0  0  0  0  0  0  0
    6.6815    1.1660    0.8900 H   0  0  0  0  0  0  0  0  0  0  0  0
    6.6815    1.1660   -0.8900 H   0  0  0  0  0  0  0  0  0  0  0  0
    5.4794   -1.0027   -0.8900 H   0  0  0  0  0  0  0  0  0  0  0  0
    5.4794   -1.0027    0.8900 H   0  0  0  0  0  0  0  0  0  0  0  0
    4.1836    1.1114    0.8900 H   0  0  0  0  0  0  0  0  0  0  0  0
    4.1836    1.1114   -0.8900 H   0  0  0  0  0  0  0  0  0  0  0  0
    2.9816   -1.0574   -0.8900 H   0  0  0  0  0  0  0  0  0  0  0  0
    2.9816   -1.0574    0.8900 H   0  0  0  0  0  0  0  0  0  0  0  0
    1.6858    1.0567    0.8900 H   0  0  0  0  0  0  0  0  0  0  0  0
    1.6858    1.0567   -0.8900 H   0  0  0  0  0  0  0  0  0  0  0  0
    0.4837   -1.1121   -0.8900 H   0  0  0  0  0  0  0  0  0  0  0  0
    0.4837   -1.1121    0.8900 H   0  0  0  0  0  0  0  0  0  0  0  0
   -0.8121    1.0021    0.8900 H   0  0  0  0  0  0  0  0  0  0  0  0
   -0.8121    1.0021   -0.8900 H   0  0  0  0  0  0  0  0  0  0  0  0
   -2.0142   -1.1667   -0.8900 H   0  0  0  0  0  0  0  0  0  0  0  0
   -2.0142   -1.1667    0.8900 H   0  0  0  0  0  0  0  0  0  0  0  0
   -3.3100    0.9474    0.8900 H   0  0  0  0  0  0  0  0  0  0  0  0
   -3.3100    0.9474   -0.8900 H   0  0  0  0  0  0  0  0  0  0  0  0
   -7.2239   -0.9800    1.0277 H   0  0  0  0  0  0  0  0  0  0  0  0
   -7.7154   -0.2381   -0.5138 H   0  0  0  0  0  0  0  0  0  0  0  0
   -6.7325   -1.7220   -0.5138 H   0  0  0  0  0  0  0  0  0  0  0  0
  1  2  1  0  0  0  0
  2  3  1  0  0  0  0
  3  4  1  0  0  0  0
  4  5  1  0  0  0  0
  5  6  1  0  0  0  0
  6  7  1  0  0  0  0
  7  8  1  0  0  0  0
  8  9  1  0  0  0  0
  9 10  1  0  0  0  0
 10 11  1  0  0  0  0
 11 12  1  0  0  0  0
 12 13  2  0  0  0  0
 12 14  1  0  0  0  0
  1 15  1  0  0  0  0
  1 16  1  0  0  0  0
  1 17  1  0  0  0  0
  2 18  1  0  0  0  0
  2 19  1  0  0  0  0
  3 20  1  0  0  0  0
  3 21  1  0  0  0  0
  4 22  1  0  0  0  0
  4 23  1  0  0  0  0
  5 24  1  0  0  0  0
  5 25  1  0  0  0  0
  6 26  1  0  0  0  0
  6 27  1  0  0  0  0
  7 28  1  0  0  0  0
  7 29  1  0  0  0  0
  8 30  1  0  0  0  0
  8 31  1  0  0  0  0
  9 32  1  0  0  0  0
  9 33  1  0  0  0  0
 10 34  1  0  0  0  0
 10 35  1  0  0  0  0
 14 36  1  0  0  0  0
 14 37  1  0  0  0  0
 14 38  1  0  0  0  0
M  END
$$$$
