C10H18O
APtclcactv05262212113D 0   0.00000     0.00000
 
 29 28  0  0  0  0  0  0  0  0999 V2000
    3.0980    0.7795    1.1239 C   0  0  0  0  0  0  0  0  0  0  0  0
    2.9604   -0.2971    0.0784 C   0  0  0  0  0  0  0  0  0  0  0  0
    4.1900   -0.8825   -0.5667 C   0  0  0  0  0  0  0  0  0  0  0  0
    1.7718   -0.7240   -0.2696 C   0  0  0  0  0  0  0  0  0  0  0  0
    0.5394   -0.0566    0.2843 C   0  0  0  0  0  0  0  0  0  0  0  0
   -0.3548    0.4014   -0.8697 C   0  0  0  0  0  0  0  0  0  0  0  0
   -1.5872    1.0688   -0.3158 C   0  0  0  0  0  0  0  0  0  0  0  0
   -1.5628    2.5382    0.0179 C   0  0  0  0  0  0  0  0  0  0  0  0
   -2.6797    0.3717   -0.1245 C   0  0  0  0  0  0  0  0  0  0  0  0
   -2.6668   -1.1210   -0.3309 C   0  0  0  0  0  0  0  0  0  0  0  0
   -3.3166   -1.7597    0.7700 O   0  0  0  0  0  0  0  0  0  0  0  0
    4.1534    0.9388    1.3447 H   0  0  0  0  0  0  0  0  0  0  0  0
    2.6609    1.7059    0.7512 H   0  0  0  0  0  0  0  0  0  0  0  0
    2.5791    0.4726    2.0320 H   0  0  0  0  0  0  0  0  0  0  0  0
    4.5296   -1.7418    0.0116 H   0  0  0  0  0  0  0  0  0  0  0  0
    3.9519   -1.1991   -1.5821 H   0  0  0  0  0  0  0  0  0  0  0  0
    4.9781   -0.1300   -0.5962 H   0  0  0  0  0  0  0  0  0  0  0  0
    1.6751   -1.5544   -0.9534 H   0  0  0  0  0  0  0  0  0  0  0  0
   -0.0070   -0.7634    0.9088 H   0  0  0  0  0  0  0  0  0  0  0  0
    0.8314    0.8066    0.8824 H   0  0  0  0  0  0  0  0  0  0  0  0
    0.1916    1.1082   -1.4943 H   0  0  0  0  0  0  0  0  0  0  0  0
   -0.6468   -0.4618   -1.4678 H   0  0  0  0  0  0  0  0  0  0  0  0
   -1.8658    3.1144   -0.8563 H   0  0  0  0  0  0  0  0  0  0  0  0
   -2.2513    2.7356    0.8396 H   0  0  0  0  0  0  0  0  0  0  0  0
   -0.5538    2.8273    0.3119 H   0  0  0  0  0  0  0  0  0  0  0  0
   -3.5896    0.8668    0.1811 H   0  0  0  0  0  0  0  0  0  0  0  0
   -3.1925   -1.3647   -1.2541 H   0  0  0  0  0  0  0  0  0  0  0  0
   -1.6363   -1.4699   -0.3966 H   0  0  0  0  0  0  0  0  0  0  0  0
   -3.3454   -2.7240    0.7041 H   0  0  0  0  0  0  0  0  0  0  0  0
  1  2  1  0  0  0  0
  2  3  1  0  0  0  0
  2  4  2  0  0  0  0
  4  5  1  0  0  0  0
  5  6  1  0  0  0  0
  6  7  1  0  0  0  0
  7  8  1  0  0  0  0
  7  9  2  0  0  0  0
  9 10  1  0  0  0  0
 10 11  1  0  0  0  0
  1 12  1  0  0  0  0
  1 13  1  0  0  0  0
  1 14  1  0  0  0  0
  3 15  1  0  0  0  0
  3 16  1  0  0  0  0
  3 17  1  0  0  0  0
  4 18  1  0  0  0  0
  5 19  1  0  0  0  0
  5 20  1  0  0  0  0
  6 21  1  0  0  0  0
  6 22  1  0  0  0  0
  8 23  1  0  0  0  0
  8 24  1  0  0  0  0
  8 25  1  0  0  0  0
  9 26  1  0  0  0  0
 10 27  1  0  0  0  0
 10 28  1  0  0  0  0
 11 29  1  0  0  0  0
M  END
$$$$
