C15H26O
APtclcactv05262212242D 0   0.00000     0.00000
 
 42 41  0  0  0  0  0  0  0  0999 V2000
   11.5263    0.2985    0.0000 C   0  0  0  0  0  0  0  0  0  0  0  0
   10.6603   -0.2015    0.0000 C   0  0  0  0  0  0  0  0  0  0  0  0
    9.7942    0.2985    0.0000 C   0  0  0  0  0  0  0  0  0  0  0  0
    8.9282   -0.2015    0.0000 C   0  0  0  0  0  0  0  0  0  0  0  0
    8.0622    0.2985    0.0000 C   0  0  0  0  0  0  0  0  0  0  0  0
    7.1962   -0.2015    0.0000 C   0  0  0  0  0  0  0  0  0  0  0  0
    6.3301    0.2985    0.0000 C   0  0  0  0  0  0  0  0  0  0  0  0
    5.4641   -0.2015    0.0000 C   0  0  0  0  0  0  0  0  0  0  0  0
    4.5981    0.2985    0.0000 C   0  0  0  0  0  0  0  0  0  0  0  0
    3.7321   -0.2015    0.0000 C   0  0  0  0  0  0  0  0  0  0  0  0
    4.2321   -1.0675    0.0000 C   0  0  0  0  0  0  0  0  0  0  0  0
    2.8660   -0.7015    0.0000 C   0  0  0  0  0  0  0  0  0  0  0  0
    2.0000   -0.2015    0.0000 C   0  0  0  0  0  0  0  0  0  0  0  0
    3.2321    0.6645    0.0000 O   0  0  0  0  0  0  0  0  0  0  0  0
    7.1962   -1.2015    0.0000 C   0  0  0  0  0  0  0  0  0  0  0  0
   10.6603   -1.2015    0.0000 C   0  0  0  0  0  0  0  0  0  0  0  0
   11.8363   -0.2384    0.0000 H   0  0  0  0  0  0  0  0  0  0  0  0
   12.0632    0.6085    0.0000 H   0  0  0  0  0  0  0  0  0  0  0  0
   11.2163    0.8355    0.0000 H   0  0  0  0  0  0  0  0  0  0  0  0
    9.7942    0.9185    0.0000 H   0  0  0  0  0  0  0  0  0  0  0  0
    8.5297   -0.6764    0.0000 H   0  0  0  0  0  0  0  0  0  0  0  0
    9.3267   -0.6764    0.0000 H   0  0  0  0  0  0  0  0  0  0  0  0
    8.4607    0.7735    0.0000 H   0  0  0  0  0  0  0  0  0  0  0  0
    7.6636    0.7735    0.0000 H   0  0  0  0  0  0  0  0  0  0  0  0
    6.3301    0.9185    0.0000 H   0  0  0  0  0  0  0  0  0  0  0  0
    5.0656   -0.6764    0.0000 H   0  0  0  0  0  0  0  0  0  0  0  0
    5.8626   -0.6764    0.0000 H   0  0  0  0  0  0  0  0  0  0  0  0
    4.9966    0.7735    0.0000 H   0  0  0  0  0  0  0  0  0  0  0  0
    4.1995    0.7735    0.0000 H   0  0  0  0  0  0  0  0  0  0  0  0
    3.6951   -1.3775    0.0000 H   0  0  0  0  0  0  0  0  0  0  0  0
    4.5421   -1.6044    0.0000 H   0  0  0  0  0  0  0  0  0  0  0  0
    4.7690   -0.7575    0.0000 H   0  0  0  0  0  0  0  0  0  0  0  0
    2.8660   -1.3215    0.0000 H   0  0  0  0  0  0  0  0  0  0  0  0
    2.0000    0.4185    0.0000 H   0  0  0  0  0  0  0  0  0  0  0  0
    1.4631   -0.5115    0.0000 H   0  0  0  0  0  0  0  0  0  0  0  0
    3.5421    1.2015    0.0000 H   0  0  0  0  0  0  0  0  0  0  0  0
    6.5762   -1.2015    0.0000 H   0  0  0  0  0  0  0  0  0  0  0  0
    7.1962   -1.8215    0.0000 H   0  0  0  0  0  0  0  0  0  0  0  0
    7.8162   -1.2015    0.0000 H   0  0  0  0  0  0  0  0  0  0  0  0
   10.0403   -1.2015    0.0000 H   0  0  0  0  0  0  0  0  0  0  0  0
   10.6603   -1.8215    0.0000 H   0  0  0  0  0  0  0  0  0  0  0  0
   11.2803   -1.2015    0.0000 H   0  0  0  0  0  0  0  0  0  0  0  0
  1  2  1  0  0  0  0
  2  3  2  0  0  0  0
  3  4  1  0  0  0  0
  4  5  1  0  0  0  0
  5  6  1  0  0  0  0
  6  7  2  0  0  0  0
  7  8  1  0  0  0  0
  8  9  1  0  0  0  0
  9 10  1  0  0  0  0
 10 11  1  0  0  0  0
 10 12  1  0  0  0  0
 12 13  2  0  0  0  0
 10 14  1  0  0  0  0
  6 15  1  0  0  0  0
  2 16  1  0  0  0  0
  1 17  1  0  0  0  0
  1 18  1  0  0  0  0
  1 19  1  0  0  0  0
  3 20  1  0  0  0  0
  4 21  1  0  0  0  0
  4 22  1  0  0  0  0
  5 23  1  0  0  0  0
  5 24  1  0  0  0  0
  7 25  1  0  0  0  0
  8 26  1  0  0  0  0
  8 27  1  0  0  0  0
  9 28  1  0  0  0  0
  9 29  1  0  0  0  0
 11 30  1  0  0  0  0
 11 31  1  0  0  0  0
 11 32  1  0  0  0  0
 12 33  1  0  0  0  0
 13 34  1  0  0  0  0
 13 35  1  0  0  0  0
 14 36  1  0  0  0  0
 15 37  1  0  0  0  0
 15 38  1  0  0  0  0
 15 39  1  0  0  0  0
 16 40  1  0  0  0  0
 16 41  1  0  0  0  0
 16 42  1  0  0  0  0
M  END
$$$$
