C14H24O2
APtclcactv05262212242D 0   0.00000     0.00000
 
 40 39  0  0  0  0  0  0  0  0999 V2000
    2.0000   -1.2500    0.0000 C   0  0  0  0  0  0  0  0  0  0  0  0
    2.8660   -1.7500    0.0000 C   0  0  0  0  0  0  0  0  0  0  0  0
    2.8660   -2.7500    0.0000 C   0  0  0  0  0  0  0  0  0  0  0  0
    3.7321   -1.2500    0.0000 C   0  0  0  0  0  0  0  0  0  0  0  0
    3.7321   -0.2500    0.0000 O   0  0  0  0  0  0  0  0  0  0  0  0
    4.5981   -1.7500    0.0000 O   0  0  0  0  0  0  0  0  0  0  0  0
    5.4641   -1.2500    0.0000 C   0  0  0  0  0  0  0  0  0  0  0  0
    6.3301   -1.7500    0.0000 C   0  0  0  0  0  0  0  0  0  0  0  0
    7.1962   -1.2500    0.0000 C   0  0  0  0  0  0  0  0  0  0  0  0
    8.0622   -1.7500    0.0000 C   0  0  0  0  0  0  0  0  0  0  0  0
    7.1962   -0.2500    0.0000 C   0  0  0  0  0  0  0  0  0  0  0  0
    8.0622    0.2500    0.0000 C   0  0  0  0  0  0  0  0  0  0  0  0
    8.0622    1.2500    0.0000 C   0  0  0  0  0  0  0  0  0  0  0  0
    8.9282    1.7500    0.0000 C   0  0  0  0  0  0  0  0  0  0  0  0
    8.9282    2.7500    0.0000 C   0  0  0  0  0  0  0  0  0  0  0  0
    9.7942    1.2500    0.0000 C   0  0  0  0  0  0  0  0  0  0  0  0
    2.3100   -0.7131    0.0000 H   0  0  0  0  0  0  0  0  0  0  0  0
    1.4631   -0.9400    0.0000 H   0  0  0  0  0  0  0  0  0  0  0  0
    1.6900   -1.7869    0.0000 H   0  0  0  0  0  0  0  0  0  0  0  0
    2.8660   -1.1300    0.0000 H   0  0  0  0  0  0  0  0  0  0  0  0
    2.2460   -2.7500    0.0000 H   0  0  0  0  0  0  0  0  0  0  0  0
    2.8660   -3.3700    0.0000 H   0  0  0  0  0  0  0  0  0  0  0  0
    3.4860   -2.7500    0.0000 H   0  0  0  0  0  0  0  0  0  0  0  0
    5.8626   -0.7751    0.0000 H   0  0  0  0  0  0  0  0  0  0  0  0
    5.0656   -0.7751    0.0000 H   0  0  0  0  0  0  0  0  0  0  0  0
    6.3301   -2.3700    0.0000 H   0  0  0  0  0  0  0  0  0  0  0  0
    7.7522   -2.2869    0.0000 H   0  0  0  0  0  0  0  0  0  0  0  0
    8.5991   -2.0600    0.0000 H   0  0  0  0  0  0  0  0  0  0  0  0
    8.3722   -1.2131    0.0000 H   0  0  0  0  0  0  0  0  0  0  0  0
    6.9841    0.3326    0.0000 H   0  0  0  0  0  0  0  0  0  0  0  0
    6.5856   -0.3577    0.0000 H   0  0  0  0  0  0  0  0  0  0  0  0
    8.2742   -0.3326    0.0000 H   0  0  0  0  0  0  0  0  0  0  0  0
    8.6728    0.3577    0.0000 H   0  0  0  0  0  0  0  0  0  0  0  0
    7.5252    1.5600    0.0000 H   0  0  0  0  0  0  0  0  0  0  0  0
    9.5482    2.7500    0.0000 H   0  0  0  0  0  0  0  0  0  0  0  0
    8.9282    3.3700    0.0000 H   0  0  0  0  0  0  0  0  0  0  0  0
    8.3082    2.7500    0.0000 H   0  0  0  0  0  0  0  0  0  0  0  0
    9.4842    0.7131    0.0000 H   0  0  0  0  0  0  0  0  0  0  0  0
   10.3312    0.9400    0.0000 H   0  0  0  0  0  0  0  0  0  0  0  0
   10.1042    1.7869    0.0000 H   0  0  0  0  0  0  0  0  0  0  0  0
  1  2  1  0  0  0  0
  2  3  1  0  0  0  0
  2  4  1  0  0  0  0
  4  5  2  0  0  0  0
  4  6  1  0  0  0  0
  6  7  1  0  0  0  0
  7  8  1  0  0  0  0
  8  9  2  0  0  0  0
  9 10  1  0  0  0  0
  9 11  1  0  0  0  0
 11 12  1  0  0  0  0
 12 13  1  0  0  0  0
 13 14  2  0  0  0  0
 14 15  1  0  0  0  0
 14 16  1  0  0  0  0
  1 17  1  0  0  0  0
  1 18  1  0  0  0  0
  1 19  1  0  0  0  0
  2 20  1  0  0  0  0
  3 21  1  0  0  0  0
  3 22  1  0  0  0  0
  3 23  1  0  0  0  0
  7 24  1  0  0  0  0
  7 25  1  0  0  0  0
  8 26  1  0  0  0  0
 10 27  1  0  0  0  0
 10 28  1  0  0  0  0
 10 29  1  0  0  0  0
 11 30  1  0  0  0  0
 11 31  1  0  0  0  0
 12 32  1  0  0  0  0
 12 33  1  0  0  0  0
 13 34  1  0  0  0  0
 15 35  1  0  0  0  0
 15 36  1  0  0  0  0
 15 37  1  0  0  0  0
 16 38  1  0  0  0  0
 16 39  1  0  0  0  0
 16 40  1  0  0  0  0
M  END
$$$$
