C9H20S
APtclcactv05262212103D 0   0.00000     0.00000
 
 30 29  0  0  0  0  0  0  0  0999 V2000
    6.3191   -0.2377   -0.0000 C   0  0  0  0  0  0  0  0  0  0  0  0
    5.0322    0.5898    0.0000 C   0  0  0  0  0  0  0  0  0  0  0  0
    3.8231   -0.3476   -0.0000 C   0  0  0  0  0  0  0  0  0  0  0  0
    2.5361    0.4799    0.0000 C   0  0  0  0  0  0  0  0  0  0  0  0
    1.3270   -0.4576   -0.0000 C   0  0  0  0  0  0  0  0  0  0  0  0
    0.0401    0.3699    0.0000 C   0  0  0  0  0  0  0  0  0  0  0  0
   -1.1691   -0.5676    0.0000 C   0  0  0  0  0  0  0  0  0  0  0  0
   -2.4560    0.2599   -0.0000 C   0  0  0  0  0  0  0  0  0  0  0  0
   -3.6651   -0.6776    0.0000 C   0  0  0  0  0  0  0  0  0  0  0  0
   -5.1909    0.3035   -0.0000 S   0  0  0  0  0  0  0  0  0  0  0  0
    7.1805    0.4302    0.0000 H   0  0  0  0  0  0  0  0  0  0  0  0
    6.3468   -0.8664    0.8900 H   0  0  0  0  0  0  0  0  0  0  0  0
    6.3468   -0.8664   -0.8900 H   0  0  0  0  0  0  0  0  0  0  0  0
    5.0045    1.2185    0.8900 H   0  0  0  0  0  0  0  0  0  0  0  0
    5.0045    1.2185   -0.8900 H   0  0  0  0  0  0  0  0  0  0  0  0
    3.8508   -0.9763   -0.8900 H   0  0  0  0  0  0  0  0  0  0  0  0
    3.8508   -0.9763    0.8900 H   0  0  0  0  0  0  0  0  0  0  0  0
    2.5084    1.1086    0.8900 H   0  0  0  0  0  0  0  0  0  0  0  0
    2.5084    1.1086   -0.8900 H   0  0  0  0  0  0  0  0  0  0  0  0
    1.3547   -1.0863   -0.8900 H   0  0  0  0  0  0  0  0  0  0  0  0
    1.3547   -1.0863    0.8900 H   0  0  0  0  0  0  0  0  0  0  0  0
    0.0124    0.9986    0.8900 H   0  0  0  0  0  0  0  0  0  0  0  0
    0.0124    0.9986   -0.8900 H   0  0  0  0  0  0  0  0  0  0  0  0
   -1.1414   -1.1963   -0.8900 H   0  0  0  0  0  0  0  0  0  0  0  0
   -1.1414   -1.1963    0.8900 H   0  0  0  0  0  0  0  0  0  0  0  0
   -2.4837    0.8886    0.8900 H   0  0  0  0  0  0  0  0  0  0  0  0
   -2.4837    0.8886   -0.8900 H   0  0  0  0  0  0  0  0  0  0  0  0
   -3.6374   -1.3063   -0.8900 H   0  0  0  0  0  0  0  0  0  0  0  0
   -3.6374   -1.3063    0.8900 H   0  0  0  0  0  0  0  0  0  0  0  0
   -6.1542   -0.6352    0.0000 H   0  0  0  0  0  0  0  0  0  0  0  0
  1  2  1  0  0  0  0
  2  3  1  0  0  0  0
  3  4  1  0  0  0  0
  4  5  1  0  0  0  0
  5  6  1  0  0  0  0
  6  7  1  0  0  0  0
  7  8  1  0  0  0  0
  8  9  1  0  0  0  0
  9 10  1  0  0  0  0
  1 11  1  0  0  0  0
  1 12  1  0  0  0  0
  1 13  1  0  0  0  0
  2 14  1  0  0  0  0
  2 15  1  0  0  0  0
  3 16  1  0  0  0  0
  3 17  1  0  0  0  0
  4 18  1  0  0  0  0
  4 19  1  0  0  0  0
  5 20  1  0  0  0  0
  5 21  1  0  0  0  0
  6 22  1  0  0  0  0
  6 23  1  0  0  0  0
  7 24  1  0  0  0  0
  7 25  1  0  0  0  0
  8 26  1  0  0  0  0
  8 27  1  0  0  0  0
  9 28  1  0  0  0  0
  9 29  1  0  0  0  0
 10 30  1  0  0  0  0
M  END
$$$$
