C9H18O
APtclcactv05262212113D 0   0.00000     0.00000
 
 28 27  0  0  0  0  0  0  0  0999 V2000
    5.5693   -0.4243    0.0910 C   0  0  0  0  0  0  0  0  0  0  0  0
    4.3290    0.4715    0.1077 C   0  0  0  0  0  0  0  0  0  0  0  0
    3.0728   -0.3949   -0.0022 C   0  0  0  0  0  0  0  0  0  0  0  0
    1.8325    0.5008    0.0145 C   0  0  0  0  0  0  0  0  0  0  0  0
    0.5762   -0.3655   -0.0954 C   0  0  0  0  0  0  0  0  0  0  0  0
   -0.6641    0.5302   -0.0787 C   0  0  0  0  0  0  0  0  0  0  0  0
   -1.9204   -0.3361   -0.1886 C   0  0  0  0  0  0  0  0  0  0  0  0
   -3.1607    0.5596   -0.1719 C   0  0  0  0  0  0  0  0  0  0  0  0
   -4.3981   -0.2937   -0.2801 C   0  0  0  0  0  0  0  0  0  0  0  0
   -5.2681   -0.2041    0.5525 O   0  0  0  0  0  0  0  0  0  0  0  0
    5.5298   -1.1154    0.9330 H   0  0  0  0  0  0  0  0  0  0  0  0
    5.5975   -0.9885   -0.8411 H   0  0  0  0  0  0  0  0  0  0  0  0
    6.4643    0.1929    0.1693 H   0  0  0  0  0  0  0  0  0  0  0  0
    4.3009    1.0357    1.0399 H   0  0  0  0  0  0  0  0  0  0  0  0
    4.3686    1.1626   -0.7342 H   0  0  0  0  0  0  0  0  0  0  0  0
    3.1009   -0.9591   -0.9344 H   0  0  0  0  0  0  0  0  0  0  0  0
    3.0332   -1.0860    0.8398 H   0  0  0  0  0  0  0  0  0  0  0  0
    1.8043    1.0651    0.9467 H   0  0  0  0  0  0  0  0  0  0  0  0
    1.8720    1.1919   -0.8274 H   0  0  0  0  0  0  0  0  0  0  0  0
    0.6044   -0.9297   -1.0276 H   0  0  0  0  0  0  0  0  0  0  0  0
    0.5366   -1.0566    0.7466 H   0  0  0  0  0  0  0  0  0  0  0  0
   -0.6922    1.0944    0.8535 H   0  0  0  0  0  0  0  0  0  0  0  0
   -0.6245    1.2213   -0.9206 H   0  0  0  0  0  0  0  0  0  0  0  0
   -1.8922   -0.9004   -1.1208 H   0  0  0  0  0  0  0  0  0  0  0  0
   -1.9599   -1.0272    0.6534 H   0  0  0  0  0  0  0  0  0  0  0  0
   -3.1888    1.1238    0.7603 H   0  0  0  0  0  0  0  0  0  0  0  0
   -3.1211    1.2507   -1.0138 H   0  0  0  0  0  0  0  0  0  0  0  0
   -4.5068   -0.9854   -1.1024 H   0  0  0  0  0  0  0  0  0  0  0  0
  1  2  1  0  0  0  0
  2  3  1  0  0  0  0
  3  4  1  0  0  0  0
  4  5  1  0  0  0  0
  5  6  1  0  0  0  0
  6  7  1  0  0  0  0
  7  8  1  0  0  0  0
  8  9  1  0  0  0  0
  9 10  2  0  0  0  0
  1 11  1  0  0  0  0
  1 12  1  0  0  0  0
  1 13  1  0  0  0  0
  2 14  1  0  0  0  0
  2 15  1  0  0  0  0
  3 16  1  0  0  0  0
  3 17  1  0  0  0  0
  4 18  1  0  0  0  0
  4 19  1  0  0  0  0
  5 20  1  0  0  0  0
  5 21  1  0  0  0  0
  6 22  1  0  0  0  0
  6 23  1  0  0  0  0
  7 24  1  0  0  0  0
  7 25  1  0  0  0  0
  8 26  1  0  0  0  0
  8 27  1  0  0  0  0
  9 28  1  0  0  0  0
M  END
$$$$
