C9H18O2
APtclcactv05262212103D 0   0.00000     0.00000
 
 29 28  0  0  0  0  0  0  0  0999 V2000
    6.0443   -0.4745   -0.0000 C   0  0  0  0  0  0  0  0  0  0  0  0
    4.8278    0.4534    0.0000 C   0  0  0  0  0  0  0  0  0  0  0  0
    3.5475   -0.3842   -0.0000 C   0  0  0  0  0  0  0  0  0  0  0  0
    2.3309    0.5436    0.0000 C   0  0  0  0  0  0  0  0  0  0  0  0
    1.0506   -0.2940   -0.0000 C   0  0  0  0  0  0  0  0  0  0  0  0
   -0.1659    0.6339    0.0000 C   0  0  0  0  0  0  0  0  0  0  0  0
   -1.4462   -0.2038   -0.0000 C   0  0  0  0  0  0  0  0  0  0  0  0
   -2.6628    0.7241   -0.0000 C   0  0  0  0  0  0  0  0  0  0  0  0
   -3.9238   -0.1010    0.0000 C   0  0  0  0  0  0  0  0  0  0  0  0
   -5.1219    0.5043   -0.0000 O   0  0  0  0  0  0  0  0  0  0  0  0
   -3.8565   -1.3074    0.0000 O   0  0  0  0  0  0  0  0  0  0  0  0
    6.0216   -1.1034    0.8900 H   0  0  0  0  0  0  0  0  0  0  0  0
    6.0216   -1.1034   -0.8900 H   0  0  0  0  0  0  0  0  0  0  0  0
    6.9564    0.1223    0.0000 H   0  0  0  0  0  0  0  0  0  0  0  0
    4.8505    1.0823    0.8900 H   0  0  0  0  0  0  0  0  0  0  0  0
    4.8505    1.0823   -0.8900 H   0  0  0  0  0  0  0  0  0  0  0  0
    3.5247   -1.0131   -0.8900 H   0  0  0  0  0  0  0  0  0  0  0  0
    3.5247   -1.0131    0.8900 H   0  0  0  0  0  0  0  0  0  0  0  0
    2.3537    1.1725    0.8900 H   0  0  0  0  0  0  0  0  0  0  0  0
    2.3537    1.1725   -0.8900 H   0  0  0  0  0  0  0  0  0  0  0  0
    1.0279   -0.9229   -0.8900 H   0  0  0  0  0  0  0  0  0  0  0  0
    1.0279   -0.9229    0.8900 H   0  0  0  0  0  0  0  0  0  0  0  0
   -0.1432    1.2628    0.8900 H   0  0  0  0  0  0  0  0  0  0  0  0
   -0.1432    1.2628   -0.8900 H   0  0  0  0  0  0  0  0  0  0  0  0
   -1.4690   -0.8327   -0.8900 H   0  0  0  0  0  0  0  0  0  0  0  0
   -1.4690   -0.8327    0.8900 H   0  0  0  0  0  0  0  0  0  0  0  0
   -2.6400    1.3530    0.8900 H   0  0  0  0  0  0  0  0  0  0  0  0
   -2.6400    1.3530   -0.8900 H   0  0  0  0  0  0  0  0  0  0  0  0
   -5.9023   -0.0667    0.0000 H   0  0  0  0  0  0  0  0  0  0  0  0
  1  2  1  0  0  0  0
  2  3  1  0  0  0  0
  3  4  1  0  0  0  0
  4  5  1  0  0  0  0
  5  6  1  0  0  0  0
  6  7  1  0  0  0  0
  7  8  1  0  0  0  0
  8  9  1  0  0  0  0
  9 10  1  0  0  0  0
  9 11  2  0  0  0  0
  1 12  1  0  0  0  0
  1 13  1  0  0  0  0
  1 14  1  0  0  0  0
  2 15  1  0  0  0  0
  2 16  1  0  0  0  0
  3 17  1  0  0  0  0
  3 18  1  0  0  0  0
  4 19  1  0  0  0  0
  4 20  1  0  0  0  0
  5 21  1  0  0  0  0
  5 22  1  0  0  0  0
  6 23  1  0  0  0  0
  6 24  1  0  0  0  0
  7 25  1  0  0  0  0
  7 26  1  0  0  0  0
  8 27  1  0  0  0  0
  8 28  1  0  0  0  0
 10 29  1  0  0  0  0
M  END
$$$$
