C9H18O2
APtclcactv05262212103D 0   0.00000     0.00000
 
 29 28  0  0  0  0  0  0  0  0999 V2000
    6.2404   -0.4044   -0.0000 C   0  0  0  0  0  0  0  0  0  0  0  0
    4.9937    0.4826    0.0000 C   0  0  0  0  0  0  0  0  0  0  0  0
    3.7419   -0.3971   -0.0000 C   0  0  0  0  0  0  0  0  0  0  0  0
    2.4952    0.4899    0.0000 C   0  0  0  0  0  0  0  0  0  0  0  0
    1.2434   -0.3898   -0.0000 C   0  0  0  0  0  0  0  0  0  0  0  0
   -0.0032    0.4971   -0.0000 C   0  0  0  0  0  0  0  0  0  0  0  0
   -1.2550   -0.3826    0.0000 C   0  0  0  0  0  0  0  0  0  0  0  0
   -2.5017    0.5044   -0.0000 C   0  0  0  0  0  0  0  0  0  0  0  0
   -3.6897   -0.3305    0.0000 O   0  0  0  0  0  0  0  0  0  0  0  0
   -4.8759    0.2976   -0.0000 C   0  0  0  0  0  0  0  0  0  0  0  0
   -5.8995   -0.3444    0.0000 O   0  0  0  0  0  0  0  0  0  0  0  0
    7.1322    0.2224    0.0000 H   0  0  0  0  0  0  0  0  0  0  0  0
    6.2385   -1.0337    0.8900 H   0  0  0  0  0  0  0  0  0  0  0  0
    6.2385   -1.0337   -0.8900 H   0  0  0  0  0  0  0  0  0  0  0  0
    4.9955    1.1119    0.8900 H   0  0  0  0  0  0  0  0  0  0  0  0
    4.9955    1.1119   -0.8900 H   0  0  0  0  0  0  0  0  0  0  0  0
    3.7401   -1.0264   -0.8900 H   0  0  0  0  0  0  0  0  0  0  0  0
    3.7401   -1.0264    0.8900 H   0  0  0  0  0  0  0  0  0  0  0  0
    2.4970    1.1192    0.8900 H   0  0  0  0  0  0  0  0  0  0  0  0
    2.4970    1.1192   -0.8900 H   0  0  0  0  0  0  0  0  0  0  0  0
    1.2416   -1.0192   -0.8900 H   0  0  0  0  0  0  0  0  0  0  0  0
    1.2416   -1.0192    0.8900 H   0  0  0  0  0  0  0  0  0  0  0  0
   -0.0014    1.1264    0.8900 H   0  0  0  0  0  0  0  0  0  0  0  0
   -0.0014    1.1264   -0.8900 H   0  0  0  0  0  0  0  0  0  0  0  0
   -1.2569   -1.0119   -0.8900 H   0  0  0  0  0  0  0  0  0  0  0  0
   -1.2569   -1.0119    0.8900 H   0  0  0  0  0  0  0  0  0  0  0  0
   -2.4999    1.1337    0.8900 H   0  0  0  0  0  0  0  0  0  0  0  0
   -2.4999    1.1337   -0.8900 H   0  0  0  0  0  0  0  0  0  0  0  0
   -4.9155    1.3769   -0.0000 H   0  0  0  0  0  0  0  0  0  0  0  0
  1  2  1  0  0  0  0
  2  3  1  0  0  0  0
  3  4  1  0  0  0  0
  4  5  1  0  0  0  0
  5  6  1  0  0  0  0
  6  7  1  0  0  0  0
  7  8  1  0  0  0  0
  8  9  1  0  0  0  0
  9 10  1  0  0  0  0
 10 11  2  0  0  0  0
  1 12  1  0  0  0  0
  1 13  1  0  0  0  0
  1 14  1  0  0  0  0
  2 15  1  0  0  0  0
  2 16  1  0  0  0  0
  3 17  1  0  0  0  0
  3 18  1  0  0  0  0
  4 19  1  0  0  0  0
  4 20  1  0  0  0  0
  5 21  1  0  0  0  0
  5 22  1  0  0  0  0
  6 23  1  0  0  0  0
  6 24  1  0  0  0  0
  7 25  1  0  0  0  0
  7 26  1  0  0  0  0
  8 27  1  0  0  0  0
  8 28  1  0  0  0  0
 10 29  1  0  0  0  0
M  END
$$$$
