C10H20O2
APtclcactv05262212103D 0   0.00000     0.00000
 
 32 31  0  0  0  0  0  0  0  0999 V2000
    6.6761    0.3113    0.0000 C   0  0  0  0  0  0  0  0  0  0  0  0
    5.4022   -0.5361   -0.0000 C   0  0  0  0  0  0  0  0  0  0  0  0
    4.1786    0.3825    0.0000 C   0  0  0  0  0  0  0  0  0  0  0  0
    2.9047   -0.4649   -0.0000 C   0  0  0  0  0  0  0  0  0  0  0  0
    1.6811    0.4537    0.0000 C   0  0  0  0  0  0  0  0  0  0  0  0
    0.4072   -0.3937   -0.0000 C   0  0  0  0  0  0  0  0  0  0  0  0
   -0.8163    0.5249    0.0000 C   0  0  0  0  0  0  0  0  0  0  0  0
   -2.0902   -0.3225   -0.0000 C   0  0  0  0  0  0  0  0  0  0  0  0
   -3.2514    0.5493   -0.0000 O   0  0  0  0  0  0  0  0  0  0  0  0
   -4.4568   -0.0413    0.0000 C   0  0  0  0  0  0  0  0  0  0  0  0
   -5.7077    0.7992   -0.0000 C   0  0  0  0  0  0  0  0  0  0  0  0
   -4.5389   -1.2468    0.0000 O   0  0  0  0  0  0  0  0  0  0  0  0
    6.6940    0.9404    0.8900 H   0  0  0  0  0  0  0  0  0  0  0  0
    7.5478   -0.3431   -0.0000 H   0  0  0  0  0  0  0  0  0  0  0  0
    6.6940    0.9404   -0.8900 H   0  0  0  0  0  0  0  0  0  0  0  0
    5.3842   -1.1651   -0.8900 H   0  0  0  0  0  0  0  0  0  0  0  0
    5.3842   -1.1651    0.8900 H   0  0  0  0  0  0  0  0  0  0  0  0
    4.1965    1.0116    0.8900 H   0  0  0  0  0  0  0  0  0  0  0  0
    4.1965    1.0116   -0.8900 H   0  0  0  0  0  0  0  0  0  0  0  0
    2.8868   -1.0939   -0.8900 H   0  0  0  0  0  0  0  0  0  0  0  0
    2.8868   -1.0939    0.8900 H   0  0  0  0  0  0  0  0  0  0  0  0
    1.6991    1.0828    0.8900 H   0  0  0  0  0  0  0  0  0  0  0  0
    1.6991    1.0828   -0.8900 H   0  0  0  0  0  0  0  0  0  0  0  0
    0.3893   -1.0227   -0.8900 H   0  0  0  0  0  0  0  0  0  0  0  0
    0.3893   -1.0227    0.8900 H   0  0  0  0  0  0  0  0  0  0  0  0
   -0.7984    1.1540    0.8900 H   0  0  0  0  0  0  0  0  0  0  0  0
   -0.7984    1.1540   -0.8900 H   0  0  0  0  0  0  0  0  0  0  0  0
   -2.1082   -0.9515   -0.8900 H   0  0  0  0  0  0  0  0  0  0  0  0
   -2.1082   -0.9515    0.8900 H   0  0  0  0  0  0  0  0  0  0  0  0
   -5.7227    1.4283   -0.8900 H   0  0  0  0  0  0  0  0  0  0  0  0
   -6.5824    0.1488   -0.0000 H   0  0  0  0  0  0  0  0  0  0  0  0
   -5.7227    1.4283    0.8900 H   0  0  0  0  0  0  0  0  0  0  0  0
  1  2  1  0  0  0  0
  2  3  1  0  0  0  0
  3  4  1  0  0  0  0
  4  5  1  0  0  0  0
  5  6  1  0  0  0  0
  6  7  1  0  0  0  0
  7  8  1  0  0  0  0
  8  9  1  0  0  0  0
  9 10  1  0  0  0  0
 10 11  1  0  0  0  0
 10 12  2  0  0  0  0
  1 13  1  0  0  0  0
  1 14  1  0  0  0  0
  1 15  1  0  0  0  0
  2 16  1  0  0  0  0
  2 17  1  0  0  0  0
  3 18  1  0  0  0  0
  3 19  1  0  0  0  0
  4 20  1  0  0  0  0
  4 21  1  0  0  0  0
  5 22  1  0  0  0  0
  5 23  1  0  0  0  0
  6 24  1  0  0  0  0
  6 25  1  0  0  0  0
  7 26  1  0  0  0  0
  7 27  1  0  0  0  0
  8 28  1  0  0  0  0
  8 29  1  0  0  0  0
 11 30  1  0  0  0  0
 11 31  1  0  0  0  0
 11 32  1  0  0  0  0
M  END
$$$$
