C10H12
APtclcactv05262212113D 0   0.00000     0.00000
 
 22 22  0  0  0  0  0  0  0  0999 V2000
    3.6053   -0.0378    0.0367 C   0  0  0  0  0  0  0  0  0  0  0  0
    2.0987   -0.0146    0.0130 C   0  0  0  0  0  0  0  0  0  0  0  0
    1.4225    1.1465    0.3423 C   0  0  0  0  0  0  0  0  0  0  0  0
    0.0431    1.1742    0.3230 C   0  0  0  0  0  0  0  0  0  0  0  0
   -0.6698    0.0279   -0.0302 C   0  0  0  0  0  0  0  0  0  0  0  0
    0.0183   -1.1399   -0.3617 C   0  0  0  0  0  0  0  0  0  0  0  0
    1.3978   -1.1529   -0.3435 C   0  0  0  0  0  0  0  0  0  0  0  0
   -2.1476    0.0504   -0.0525 C   0  0  0  0  0  0  0  0  0  0  0  0
   -2.7857    0.8208   -0.9223 C   0  0  0  0  0  0  0  0  0  0  0  0
   -2.9288   -0.8025    0.9136 C   0  0  0  0  0  0  0  0  0  0  0  0
    3.9485   -0.3346    1.0277 H   0  0  0  0  0  0  0  0  0  0  0  0
    3.9694   -0.7513   -0.7026 H   0  0  0  0  0  0  0  0  0  0  0  0
    3.9877    0.9555   -0.1980 H   0  0  0  0  0  0  0  0  0  0  0  0
    1.9754    2.0331    0.6155 H   0  0  0  0  0  0  0  0  0  0  0  0
   -0.4836    2.0810    0.5810 H   0  0  0  0  0  0  0  0  0  0  0  0
   -0.5278   -2.0305   -0.6356 H   0  0  0  0  0  0  0  0  0  0  0  0
    1.9316   -2.0560   -0.6003 H   0  0  0  0  0  0  0  0  0  0  0  0
   -3.8654    0.8373   -0.9386 H   0  0  0  0  0  0  0  0  0  0  0  0
   -2.2258    1.4321   -1.6146 H   0  0  0  0  0  0  0  0  0  0  0  0
   -2.6765   -0.5184    1.9352 H   0  0  0  0  0  0  0  0  0  0  0  0
   -3.9959   -0.6543    0.7482 H   0  0  0  0  0  0  0  0  0  0  0  0
   -2.6790   -1.8518    0.7560 H   0  0  0  0  0  0  0  0  0  0  0  0
  1  2  1  0  0  0  0
  2  3  2  0  0  0  0
  3  4  1  0  0  0  0
  4  5  2  0  0  0  0
  5  6  1  0  0  0  0
  6  7  2  0  0  0  0
  2  7  1  0  0  0  0
  5  8  1  0  0  0  0
  8  9  2  0  0  0  0
  8 10  1  0  0  0  0
  1 11  1  0  0  0  0
  1 12  1  0  0  0  0
  1 13  1  0  0  0  0
  3 14  1  0  0  0  0
  4 15  1  0  0  0  0
  6 16  1  0  0  0  0
  7 17  1  0  0  0  0
  9 18  1  0  0  0  0
  9 19  1  0  0  0  0
 10 20  1  0  0  0  0
 10 21  1  0  0  0  0
 10 22  1  0  0  0  0
M  END
$$$$
