C8H8O2
APtclcactv05262212113D 0   0.00000     0.00000
 
 18 18  0  0  0  0  0  0  0  0999 V2000
    3.4734    0.1950    0.1302 C   0  0  0  0  0  0  0  0  0  0  0  0
    2.0096   -0.0553   -0.1262 C   0  0  0  0  0  0  0  0  0  0  0  0
    1.6619   -0.6310   -1.1300 O   0  0  0  0  0  0  0  0  0  0  0  0
    1.0918    0.3615    0.7607 O   0  0  0  0  0  0  0  0  0  0  0  0
   -0.2140    0.1962    0.4212 C   0  0  0  0  0  0  0  0  0  0  0  0
   -0.8033   -1.0562    0.5155 C   0  0  0  0  0  0  0  0  0  0  0  0
   -2.1306   -1.2215    0.1704 C   0  0  0  0  0  0  0  0  0  0  0  0
   -2.8717   -0.1401   -0.2691 C   0  0  0  0  0  0  0  0  0  0  0  0
   -2.2867    1.1092   -0.3640 C   0  0  0  0  0  0  0  0  0  0  0  0
   -0.9612    1.2808   -0.0146 C   0  0  0  0  0  0  0  0  0  0  0  0
    4.0611   -0.2115   -0.6928 H   0  0  0  0  0  0  0  0  0  0  0  0
    3.6504    1.2677    0.2080 H   0  0  0  0  0  0  0  0  0  0  0  0
    3.7673   -0.2902    1.0610 H   0  0  0  0  0  0  0  0  0  0  0  0
   -0.2247   -1.9013    0.8582 H   0  0  0  0  0  0  0  0  0  0  0  0
   -2.5898   -2.1962    0.2437 H   0  0  0  0  0  0  0  0  0  0  0  0
   -3.9091   -0.2715   -0.5392 H   0  0  0  0  0  0  0  0  0  0  0  0
   -2.8676    1.9522   -0.7080 H   0  0  0  0  0  0  0  0  0  0  0  0
   -0.5047    2.2567   -0.0890 H   0  0  0  0  0  0  0  0  0  0  0  0
  1  2  1  0  0  0  0
  2  3  2  0  0  0  0
  2  4  1  0  0  0  0
  4  5  1  0  0  0  0
  5  6  2  0  0  0  0
  6  7  1  0  0  0  0
  7  8  2  0  0  0  0
  8  9  1  0  0  0  0
  9 10  2  0  0  0  0
  5 10  1  0  0  0  0
  1 11  1  0  0  0  0
  1 12  1  0  0  0  0
  1 13  1  0  0  0  0
  6 14  1  0  0  0  0
  7 15  1  0  0  0  0
  8 16  1  0  0  0  0
  9 17  1  0  0  0  0
 10 18  1  0  0  0  0
M  END
$$$$
