C10H12O2
APtclcactv05262212103D 0   0.00000     0.00000
 
 24 24  0  0  0  0  0  0  0  0999 V2000
    4.7482    0.0024    0.2822 C   0  0  0  0  0  0  0  0  0  0  0  0
    3.3392   -0.0019   -0.2524 C   0  0  0  0  0  0  0  0  0  0  0  0
    3.1456   -0.0114   -1.4450 O   0  0  0  0  0  0  0  0  0  0  0  0
    2.2994    0.0048    0.5964 O   0  0  0  0  0  0  0  0  0  0  0  0
    0.9706    0.0001    0.0110 C   0  0  0  0  0  0  0  0  0  0  0  0
   -0.0777    0.0090    1.1254 C   0  0  0  0  0  0  0  0  0  0  0  0
   -1.4568    0.0041    0.5178 C   0  0  0  0  0  0  0  0  0  0  0  0
   -2.0892   -1.1953    0.2487 C   0  0  0  0  0  0  0  0  0  0  0  0
   -3.3542   -1.1998   -0.3087 C   0  0  0  0  0  0  0  0  0  0  0  0
   -3.9870   -0.0049   -0.5965 C   0  0  0  0  0  0  0  0  0  0  0  0
   -3.3549    1.1945   -0.3265 C   0  0  0  0  0  0  0  0  0  0  0  0
   -2.0916    1.1990    0.2348 C   0  0  0  0  0  0  0  0  0  0  0  0
    5.0879    1.0311    0.4029 H   0  0  0  0  0  0  0  0  0  0  0  0
    4.7722   -0.5037    1.2472 H   0  0  0  0  0  0  0  0  0  0  0  0
    5.4037   -0.5170   -0.4169 H   0  0  0  0  0  0  0  0  0  0  0  0
    0.8452    0.8852   -0.6128 H   0  0  0  0  0  0  0  0  0  0  0  0
    0.8453   -0.8948   -0.5986 H   0  0  0  0  0  0  0  0  0  0  0  0
    0.0477   -0.8761    1.7492 H   0  0  0  0  0  0  0  0  0  0  0  0
    0.0476    0.9038    1.7350 H   0  0  0  0  0  0  0  0  0  0  0  0
   -1.5949   -2.1288    0.4736 H   0  0  0  0  0  0  0  0  0  0  0  0
   -3.8481   -2.1368   -0.5196 H   0  0  0  0  0  0  0  0  0  0  0  0
   -4.9750   -0.0084   -1.0326 H   0  0  0  0  0  0  0  0  0  0  0  0
   -3.8491    2.1280   -0.5517 H   0  0  0  0  0  0  0  0  0  0  0  0
   -1.5978    2.1360    0.4457 H   0  0  0  0  0  0  0  0  0  0  0  0
  1  2  1  0  0  0  0
  2  3  2  0  0  0  0
  2  4  1  0  0  0  0
  4  5  1  0  0  0  0
  5  6  1  0  0  0  0
  6  7  1  0  0  0  0
  7  8  2  0  0  0  0
  8  9  1  0  0  0  0
  9 10  2  0  0  0  0
 10 11  1  0  0  0  0
 11 12  2  0  0  0  0
  7 12  1  0  0  0  0
  1 13  1  0  0  0  0
  1 14  1  0  0  0  0
  1 15  1  0  0  0  0
  5 16  1  0  0  0  0
  5 17  1  0  0  0  0
  6 18  1  0  0  0  0
  6 19  1  0  0  0  0
  8 20  1  0  0  0  0
  9 21  1  0  0  0  0
 10 22  1  0  0  0  0
 11 23  1  0  0  0  0
 12 24  1  0  0  0  0
M  END
$$$$
