C8H8O
APtclcactv05262212103D 0   0.00000     0.00000
 
 17 17  0  0  0  0  0  0  0  0999 V2000
   -3.2575   -0.4398   -0.4800 O   0  0  0  0  0  0  0  0  0  0  0  0
   -2.3289    0.3292   -0.4108 C   0  0  0  0  0  0  0  0  0  0  0  0
   -1.4497    0.3408    0.8131 C   0  0  0  0  0  0  0  0  0  0  0  0
   -0.0132    0.1458    0.4015 C   0  0  0  0  0  0  0  0  0  0  0  0
    0.7764    1.2417    0.1075 C   0  0  0  0  0  0  0  0  0  0  0  0
    2.0941    1.0629   -0.2700 C   0  0  0  0  0  0  0  0  0  0  0  0
    2.6224   -0.2118   -0.3533 C   0  0  0  0  0  0  0  0  0  0  0  0
    1.8330   -1.3077   -0.0585 C   0  0  0  0  0  0  0  0  0  0  0  0
    0.5166   -1.1286    0.3233 C   0  0  0  0  0  0  0  0  0  0  0  0
   -2.1259    1.0055   -1.2280 H   0  0  0  0  0  0  0  0  0  0  0  0
   -1.5541    1.2966    1.3264 H   0  0  0  0  0  0  0  0  0  0  0  0
   -1.7484   -0.4658    1.4827 H   0  0  0  0  0  0  0  0  0  0  0  0
    0.3637    2.2377    0.1726 H   0  0  0  0  0  0  0  0  0  0  0  0
    2.7108    1.9191   -0.5004 H   0  0  0  0  0  0  0  0  0  0  0  0
    3.6516   -0.3515   -0.6490 H   0  0  0  0  0  0  0  0  0  0  0  0
    2.2456   -2.3036   -0.1239 H   0  0  0  0  0  0  0  0  0  0  0  0
   -0.1001   -1.9848    0.5536 H   0  0  0  0  0  0  0  0  0  0  0  0
  1  2  2  0  0  0  0
  2  3  1  0  0  0  0
  3  4  1  0  0  0  0
  4  5  1  0  0  0  0
  5  6  2  0  0  0  0
  6  7  1  0  0  0  0
  7  8  2  0  0  0  0
  8  9  1  0  0  0  0
  4  9  2  0  0  0  0
  2 10  1  0  0  0  0
  3 11  1  0  0  0  0
  3 12  1  0  0  0  0
  5 13  1  0  0  0  0
  6 14  1  0  0  0  0
  7 15  1  0  0  0  0
  8 16  1  0  0  0  0
  9 17  1  0  0  0  0
M  END
$$$$
