C10H10O4
APtclcactv05262212103D 0   0.00000     0.00000
 
 24 25  0  0  0  0  0  0  0  0999 V2000
    4.6699   -0.4780   -1.3726 C   0  0  0  0  0  0  0  0  0  0  0  0
    3.7881   -0.2119   -0.1799 C   0  0  0  0  0  0  0  0  0  0  0  0
    4.2719   -0.1401    0.9250 O   0  0  0  0  0  0  0  0  0  0  0  0
    2.4654   -0.0547   -0.3449 O   0  0  0  0  0  0  0  0  0  0  0  0
    1.6777    0.1989    0.8483 C   0  0  0  0  0  0  0  0  0  0  0  0
    0.2265    0.3470    0.4701 C   0  0  0  0  0  0  0  0  0  0  0  0
   -0.5960   -0.7638    0.4429 C   0  0  0  0  0  0  0  0  0  0  0  0
   -1.9306   -0.6300    0.0960 C   0  0  0  0  0  0  0  0  0  0  0  0
   -2.4403    0.6257   -0.2250 C   0  0  0  0  0  0  0  0  0  0  0  0
   -1.6100    1.7344   -0.1964 C   0  0  0  0  0  0  0  0  0  0  0  0
   -0.2808    1.5943    0.1566 C   0  0  0  0  0  0  0  0  0  0  0  0
   -3.7649    0.4945   -0.5276 O   0  0  0  0  0  0  0  0  0  0  0  0
   -4.1564   -0.7841    0.0062 C   0  0  0  0  0  0  0  0  0  0  0  0
   -2.9358   -1.5478   -0.0055 O   0  0  0  0  0  0  0  0  0  0  0  0
    5.7048   -0.5764   -1.0447 H   0  0  0  0  0  0  0  0  0  0  0  0
    4.3538   -1.4006   -1.8595 H   0  0  0  0  0  0  0  0  0  0  0  0
    4.5890    0.3504   -2.0763 H   0  0  0  0  0  0  0  0  0  0  0  0
    1.7893   -0.6350    1.5413 H   0  0  0  0  0  0  0  0  0  0  0  0
    2.0245    1.1160    1.3245 H   0  0  0  0  0  0  0  0  0  0  0  0
   -0.1979   -1.7364    0.6919 H   0  0  0  0  0  0  0  0  0  0  0  0
   -2.0026    2.7094   -0.4448 H   0  0  0  0  0  0  0  0  0  0  0  0
    0.3649    2.4597    0.1787 H   0  0  0  0  0  0  0  0  0  0  0  0
   -4.5306   -0.6757    1.0242 H   0  0  0  0  0  0  0  0  0  0  0  0
   -4.9070   -1.2517   -0.6311 H   0  0  0  0  0  0  0  0  0  0  0  0
  1  2  1  0  0  0  0
  2  3  2  0  0  0  0
  2  4  1  0  0  0  0
  4  5  1  0  0  0  0
  5  6  1  0  0  0  0
  6  7  2  0  0  0  0
  7  8  1  0  0  0  0
  8  9  2  0  0  0  0
  9 10  1  0  0  0  0
 10 11  2  0  0  0  0
  6 11  1  0  0  0  0
  9 12  1  0  0  0  0
 12 13  1  0  0  0  0
 13 14  1  0  0  0  0
  8 14  1  0  0  0  0
  1 15  1  0  0  0  0
  1 16  1  0  0  0  0
  1 17  1  0  0  0  0
  5 18  1  0  0  0  0
  5 19  1  0  0  0  0
  7 20  1  0  0  0  0
 10 21  1  0  0  0  0
 11 22  1  0  0  0  0
 13 23  1  0  0  0  0
 13 24  1  0  0  0  0
M  END
$$$$
