C7H12O2
APtclcactv05262212103D 0   0.00000     0.00000
 
 21 20  0  0  0  0  0  0  0  0999 V2000
    3.4917   -0.8124   -0.4936 C   0  0  0  0  0  0  0  0  0  0  0  0
    2.2998   -0.0082   -0.0420 C   0  0  0  0  0  0  0  0  0  0  0  0
    2.4352    1.1529    0.2635 O   0  0  0  0  0  0  0  0  0  0  0  0
    1.0880   -0.5819    0.0209 O   0  0  0  0  0  0  0  0  0  0  0  0
   -0.0142    0.2527    0.4645 C   0  0  0  0  0  0  0  0  0  0  0  0
   -1.2857   -0.5562    0.4716 C   0  0  0  0  0  0  0  0  0  0  0  0
   -2.3886   -0.0472   -0.0190 C   0  0  0  0  0  0  0  0  0  0  0  0
   -2.4187    1.3896   -0.4727 C   0  0  0  0  0  0  0  0  0  0  0  0
   -3.6273   -0.8984   -0.1295 C   0  0  0  0  0  0  0  0  0  0  0  0
    3.9607   -1.2833    0.3702 H   0  0  0  0  0  0  0  0  0  0  0  0
    3.1667   -1.5811   -1.1948 H   0  0  0  0  0  0  0  0  0  0  0  0
    4.2096   -0.1543   -0.9831 H   0  0  0  0  0  0  0  0  0  0  0  0
    0.1892    0.6186    1.4709 H   0  0  0  0  0  0  0  0  0  0  0  0
   -0.1255    1.0985   -0.2140 H   0  0  0  0  0  0  0  0  0  0  0  0
   -1.2877   -1.5556    0.8810 H   0  0  0  0  0  0  0  0  0  0  0  0
   -2.0559    1.4543   -1.4985 H   0  0  0  0  0  0  0  0  0  0  0  0
   -3.4411    1.7644   -0.4246 H   0  0  0  0  0  0  0  0  0  0  0  0
   -1.7809    1.9891    0.1768 H   0  0  0  0  0  0  0  0  0  0  0  0
   -3.4145   -1.8998    0.2446 H   0  0  0  0  0  0  0  0  0  0  0  0
   -4.4282   -0.4527    0.4603 H   0  0  0  0  0  0  0  0  0  0  0  0
   -3.9350   -0.9583   -1.1735 H   0  0  0  0  0  0  0  0  0  0  0  0
  1  2  1  0  0  0  0
  2  3  2  0  0  0  0
  2  4  1  0  0  0  0
  4  5  1  0  0  0  0
  5  6  1  0  0  0  0
  6  7  2  0  0  0  0
  7  8  1  0  0  0  0
  7  9  1  0  0  0  0
  1 10  1  0  0  0  0
  1 11  1  0  0  0  0
  1 12  1  0  0  0  0
  5 13  1  0  0  0  0
  5 14  1  0  0  0  0
  6 15  1  0  0  0  0
  8 16  1  0  0  0  0
  8 17  1  0  0  0  0
  8 18  1  0  0  0  0
  9 19  1  0  0  0  0
  9 20  1  0  0  0  0
  9 21  1  0  0  0  0
M  END
$$$$
