C3H6O2
APtclcactv05262212103D 0   0.00000     0.00000
 
 11 10  0  0  0  0  0  0  0  0999 V2000
    1.9971   -0.0660   -0.0000 C   0  0  0  0  0  0  0  0  0  0  0  0
    0.7573    0.8305    0.0000 C   0  0  0  0  0  0  0  0  0  0  0  0
   -0.4824   -0.0264    0.0000 C   0  0  0  0  0  0  0  0  0  0  0  0
   -1.6955    0.5481   -0.0000 O   0  0  0  0  0  0  0  0  0  0  0  0
   -0.3843   -1.2307    0.0000 O   0  0  0  0  0  0  0  0  0  0  0  0
    1.9904   -0.6953    0.8900 H   0  0  0  0  0  0  0  0  0  0  0  0
    1.9904   -0.6953   -0.8900 H   0  0  0  0  0  0  0  0  0  0  0  0
    2.8937    0.5538   -0.0000 H   0  0  0  0  0  0  0  0  0  0  0  0
    0.7639    1.4598    0.8900 H   0  0  0  0  0  0  0  0  0  0  0  0
    0.7639    1.4598   -0.8900 H   0  0  0  0  0  0  0  0  0  0  0  0
   -2.4610   -0.0426    0.0000 H   0  0  0  0  0  0  0  0  0  0  0  0
  1  2  1  0  0  0  0
  2  3  1  0  0  0  0
  3  4  1  0  0  0  0
  3  5  2  0  0  0  0
  1  6  1  0  0  0  0
  1  7  1  0  0  0  0
  1  8  1  0  0  0  0
  2  9  1  0  0  0  0
  2 10  1  0  0  0  0
  4 11  1  0  0  0  0
M  END
$$$$
