C4H4N2
APtclcactv05262212103D 0   0.00000     0.00000
 
 10 10  0  0  0  0  0  0  0  0999 V2000
    0.6911   -1.1448   -0.0002 C   0  0  0  0  0  0  0  0  0  0  0  0
   -0.6926   -1.1439   -0.0000 C   0  0  0  0  0  0  0  0  0  0  0  0
   -1.3525    0.0009   -0.0001 N   0  0  0  0  0  0  0  0  0  0  0  0
   -0.6911    1.1448    0.0001 C   0  0  0  0  0  0  0  0  0  0  0  0
    0.6926    1.1439    0.0004 C   0  0  0  0  0  0  0  0  0  0  0  0
    1.3525   -0.0009   -0.0005 N   0  0  0  0  0  0  0  0  0  0  0  0
    1.2304   -2.0805    0.0044 H   0  0  0  0  0  0  0  0  0  0  0  0
   -1.2333   -2.0788   -0.0002 H   0  0  0  0  0  0  0  0  0  0  0  0
   -1.2304    2.0805   -0.0003 H   0  0  0  0  0  0  0  0  0  0  0  0
    1.2333    2.0788   -0.0001 H   0  0  0  0  0  0  0  0  0  0  0  0
  1  2  1  0  0  0  0
  2  3  2  0  0  0  0
  3  4  1  0  0  0  0
  4  5  2  0  0  0  0
  5  6  1  0  0  0  0
  1  6  2  0  0  0  0
  1  7  1  0  0  0  0
  2  8  1  0  0  0  0
  4  9  1  0  0  0  0
  5 10  1  0  0  0  0
M  END
$$$$
