C5H5N
APtclcactv05262212103D 0   0.00000     0.00000
 
 11 11  0  0  0  0  0  0  0  0999 V2000
   -0.0001   -1.3933   -0.0003 C   0  0  0  0  0  0  0  0  0  0  0  0
   -1.1911   -0.6835   -0.0002 C   0  0  0  0  0  0  0  0  0  0  0  0
   -1.1518    0.6980    0.0002 C   0  0  0  0  0  0  0  0  0  0  0  0
    0.0001    1.3400    0.0001 N   0  0  0  0  0  0  0  0  0  0  0  0
    1.1519    0.6978   -0.0000 C   0  0  0  0  0  0  0  0  0  0  0  0
    1.1910   -0.6837    0.0000 C   0  0  0  0  0  0  0  0  0  0  0  0
   -0.0002   -2.4733    0.0038 H   0  0  0  0  0  0  0  0  0  0  0  0
   -2.1376   -1.2036   -0.0008 H   0  0  0  0  0  0  0  0  0  0  0  0
   -2.0751    1.2582    0.0003 H   0  0  0  0  0  0  0  0  0  0  0  0
    2.0753    1.2580   -0.0005 H   0  0  0  0  0  0  0  0  0  0  0  0
    2.1375   -1.2039    0.0003 H   0  0  0  0  0  0  0  0  0  0  0  0
  1  2  1  0  0  0  0
  2  3  2  0  0  0  0
  3  4  1  0  0  0  0
  4  5  2  0  0  0  0
  5  6  1  0  0  0  0
  1  6  2  0  0  0  0
  1  7  1  0  0  0  0
  2  8  1  0  0  0  0
  3  9  1  0  0  0  0
  5 10  1  0  0  0  0
  6 11  1  0  0  0  0
M  END
$$$$
