C9H7N
APtclcactv05262212103D 0   0.00000     0.00000
 
 17 18  0  0  0  0  0  0  0  0999 V2000
   -2.3884    0.6973    0.0004 C   0  0  0  0  0  0  0  0  0  0  0  0
   -2.3815   -0.6964    0.0001 C   0  0  0  0  0  0  0  0  0  0  0  0
   -1.2126   -1.3929   -0.0000 C   0  0  0  0  0  0  0  0  0  0  0  0
    0.0116   -0.7013   -0.0003 C   0  0  0  0  0  0  0  0  0  0  0  0
    1.1754   -1.3585   -0.0001 N   0  0  0  0  0  0  0  0  0  0  0  0
    2.3196   -0.7183    0.0002 C   0  0  0  0  0  0  0  0  0  0  0  0
    2.3809    0.6732    0.0001 C   0  0  0  0  0  0  0  0  0  0  0  0
    1.2283    1.4064   -0.0002 C   0  0  0  0  0  0  0  0  0  0  0  0
    0.0021    0.7158   -0.0004 C   0  0  0  0  0  0  0  0  0  0  0  0
   -1.2235    1.4016    0.0002 C   0  0  0  0  0  0  0  0  0  0  0  0
   -3.3304    1.2255   -0.0036 H   0  0  0  0  0  0  0  0  0  0  0  0
   -3.3192   -1.2322    0.0003 H   0  0  0  0  0  0  0  0  0  0  0  0
   -1.2251   -2.4728    0.0004 H   0  0  0  0  0  0  0  0  0  0  0  0
    3.2390   -1.2850    0.0007 H   0  0  0  0  0  0  0  0  0  0  0  0
    3.3389    1.1720    0.0007 H   0  0  0  0  0  0  0  0  0  0  0  0
    1.2572    2.4860   -0.0002 H   0  0  0  0  0  0  0  0  0  0  0  0
   -1.2416    2.4814    0.0012 H   0  0  0  0  0  0  0  0  0  0  0  0
  1  2  1  0  0  0  0
  2  3  2  0  0  0  0
  3  4  1  0  0  0  0
  4  5  2  0  0  0  0
  5  6  1  0  0  0  0
  6  7  2  0  0  0  0
  7  8  1  0  0  0  0
  8  9  2  0  0  0  0
  4  9  1  0  0  0  0
  9 10  1  0  0  0  0
  1 10  2  0  0  0  0
  1 11  1  0  0  0  0
  2 12  1  0  0  0  0
  3 13  1  0  0  0  0
  6 14  1  0  0  0  0
  7 15  1  0  0  0  0
  8 16  1  0  0  0  0
 10 17  1  0  0  0  0
M  END
$$$$
