C5H10OS
APtclcactv05262212113D 0   0.00000     0.00000
 
 17 16  0  0  0  0  0  0  0  0999 V2000
    3.6115   -0.2695   -0.0000 C   0  0  0  0  0  0  0  0  0  0  0  0
    2.2599    0.4475    0.0000 C   0  0  0  0  0  0  0  0  0  0  0  0
    1.1333   -0.5878    0.0000 C   0  0  0  0  0  0  0  0  0  0  0  0
   -0.1979    0.1185    0.0000 C   0  0  0  0  0  0  0  0  0  0  0  0
   -0.2414    1.3310    0.0000 O   0  0  0  0  0  0  0  0  0  0  0  0
   -1.6490   -0.7900    0.0000 S   0  0  0  0  0  0  0  0  0  0  0  0
   -2.8613    0.5539   -0.0000 C   0  0  0  0  0  0  0  0  0  0  0  0
    3.6916   -0.8937    0.8900 H   0  0  0  0  0  0  0  0  0  0  0  0
    3.6916   -0.8937   -0.8900 H   0  0  0  0  0  0  0  0  0  0  0  0
    4.4140    0.4680   -0.0000 H   0  0  0  0  0  0  0  0  0  0  0  0
    2.1797    1.0717    0.8900 H   0  0  0  0  0  0  0  0  0  0  0  0
    2.1797    1.0717   -0.8900 H   0  0  0  0  0  0  0  0  0  0  0  0
    1.2135   -1.2119   -0.8900 H   0  0  0  0  0  0  0  0  0  0  0  0
    1.2135   -1.2119    0.8900 H   0  0  0  0  0  0  0  0  0  0  0  0
   -2.7232    1.1679    0.8900 H   0  0  0  0  0  0  0  0  0  0  0  0
   -2.7232    1.1679   -0.8900 H   0  0  0  0  0  0  0  0  0  0  0  0
   -3.8678    0.1354   -0.0000 H   0  0  0  0  0  0  0  0  0  0  0  0
  1  2  1  0  0  0  0
  2  3  1  0  0  0  0
  3  4  1  0  0  0  0
  4  5  2  0  0  0  0
  4  6  1  0  0  0  0
  6  7  1  0  0  0  0
  1  8  1  0  0  0  0
  1  9  1  0  0  0  0
  1 10  1  0  0  0  0
  2 11  1  0  0  0  0
  2 12  1  0  0  0  0
  3 13  1  0  0  0  0
  3 14  1  0  0  0  0
  7 15  1  0  0  0  0
  7 16  1  0  0  0  0
  7 17  1  0  0  0  0
M  END
$$$$
