C10H18O
APtclcactv05262212103D 0   0.00000     0.00000
 
 29 29  0  0  1  0  0  0  0  0999 V2000
    3.8765    0.0819   -0.0982 C   0  0  0  0  0  0  0  0  0  0  0  0
    2.3709    0.0361   -0.0537 C   0  0  0  0  0  0  0  0  0  0  0  0
    1.7320    1.1580    0.0383 C   0  0  0  0  0  0  0  0  0  0  0  0
    0.2370    1.2715    0.1025 C   0  0  0  0  0  0  0  0  0  0  0  0
   -0.4113   -0.0297   -0.3752 C   0  0  1  0  0  0  0  0  0  0  0  0
   -0.2655   -0.1387   -1.4499 H   0  0  0  0  0  0  0  0  0  0  0  0
    0.2552   -1.2012    0.3571 C   0  0  0  0  0  0  0  0  0  0  0  0
    1.7053   -1.3071   -0.1249 C   0  0  0  0  0  0  0  0  0  0  0  0
   -1.9082   -0.0047   -0.0594 C   0  0  0  0  0  0  0  0  0  0  0  0
   -2.5606    1.1801   -0.7745 C   0  0  0  0  0  0  0  0  0  0  0  0
   -2.5523   -1.3072   -0.5385 C   0  0  0  0  0  0  0  0  0  0  0  0
   -2.0952    0.1285    1.3511 O   0  0  0  0  0  0  0  0  0  0  0  0
    4.2103    1.1180   -0.0424 H   0  0  0  0  0  0  0  0  0  0  0  0
    4.2821   -0.4765    0.7455 H   0  0  0  0  0  0  0  0  0  0  0  0
    4.2261   -0.3628   -1.0300 H   0  0  0  0  0  0  0  0  0  0  0  0
    2.3108    2.0692    0.0714 H   0  0  0  0  0  0  0  0  0  0  0  0
   -0.0665    1.4703    1.1303 H   0  0  0  0  0  0  0  0  0  0  0  0
   -0.0907    2.0934   -0.5342 H   0  0  0  0  0  0  0  0  0  0  0  0
    0.2348   -1.0207    1.4318 H   0  0  0  0  0  0  0  0  0  0  0  0
   -0.2745   -2.1258    0.1276 H   0  0  0  0  0  0  0  0  0  0  0  0
    1.7189   -1.6694   -1.1528 H   0  0  0  0  0  0  0  0  0  0  0  0
    2.2469   -2.0081    0.5103 H   0  0  0  0  0  0  0  0  0  0  0  0
   -2.4179    1.0785   -1.8503 H   0  0  0  0  0  0  0  0  0  0  0  0
   -3.6270    1.1979   -0.5495 H   0  0  0  0  0  0  0  0  0  0  0  0
   -2.1017    2.1080   -0.4331 H   0  0  0  0  0  0  0  0  0  0  0  0
   -2.0875   -2.1513   -0.0291 H   0  0  0  0  0  0  0  0  0  0  0  0
   -3.6187   -1.2894   -0.3135 H   0  0  0  0  0  0  0  0  0  0  0  0
   -2.4097   -1.4088   -1.6144 H   0  0  0  0  0  0  0  0  0  0  0  0
   -1.7113    0.9337    1.7244 H   0  0  0  0  0  0  0  0  0  0  0  0
  1  2  1  0  0  0  0
  2  3  2  0  0  0  0
  3  4  1  0  0  0  0
  4  5  1  0  0  0  0
  5  6  1  0  0  0  0
  5  7  1  0  0  0  0
  7  8  1  0  0  0  0
  2  8  1  0  0  0  0
  5  9  1  0  0  0  0
  9 10  1  0  0  0  0
  9 11  1  0  0  0  0
  9 12  1  0  0  0  0
  1 13  1  0  0  0  0
  1 14  1  0  0  0  0
  1 15  1  0  0  0  0
  3 16  1  0  0  0  0
  4 17  1  0  0  0  0
  4 18  1  0  0  0  0
  7 19  1  0  0  0  0
  7 20  1  0  0  0  0
  8 21  1  0  0  0  0
  8 22  1  0  0  0  0
 10 23  1  0  0  0  0
 10 24  1  0  0  0  0
 10 25  1  0  0  0  0
 11 26  1  0  0  0  0
 11 27  1  0  0  0  0
 11 28  1  0  0  0  0
 12 29  1  0  0  0  0
M  END
$$$$
