C3H3NS
APtclcactv05262212103D 0   0.00000     0.00000
 
  8  8  0  0  0  0  0  0  0  0999 V2000
    1.1429   -0.0679    0.0000 S   0  0  0  0  0  0  0  0  0  0  0  0
   -0.1716   -1.2412    0.0001 C   0  0  0  0  0  0  0  0  0  0  0  0
   -1.3252   -0.5664    0.0000 C   0  0  0  0  0  0  0  0  0  0  0  0
   -1.1914    0.7446   -0.0000 N   0  0  0  0  0  0  0  0  0  0  0  0
    0.0108    1.2133   -0.0001 C   0  0  0  0  0  0  0  0  0  0  0  0
   -0.0642   -2.3158   -0.0004 H   0  0  0  0  0  0  0  0  0  0  0  0
   -2.2881   -1.0554    0.0000 H   0  0  0  0  0  0  0  0  0  0  0  0
    0.2650    2.2629    0.0005 H   0  0  0  0  0  0  0  0  0  0  0  0
  1  2  1  0  0  0  0
  2  3  2  0  0  0  0
  3  4  1  0  0  0  0
  4  5  2  0  0  0  0
  1  5  1  0  0  0  0
  2  6  1  0  0  0  0
  3  7  1  0  0  0  0
  5  8  1  0  0  0  0
M  END
$$$$
