C4H8S2
APtclcactv05262212113D 0   0.00000     0.00000
 
 14 14  0  0  0  0  0  0  0  0999 V2000
    2.0878   -0.0763    0.2220 S   0  0  0  0  0  0  0  0  0  0  0  0
    0.4896   -0.1139   -0.6352 C   0  0  0  0  0  0  0  0  0  0  0  0
   -0.2486   -1.4275   -0.3320 C   0  0  0  0  0  0  0  0  0  0  0  0
   -1.5546   -1.2019    0.4314 C   0  0  0  0  0  0  0  0  0  0  0  0
   -2.1369    0.1809    0.0366 C   0  0  0  0  0  0  0  0  0  0  0  0
   -0.6095    1.2063    0.0071 S   0  0  0  0  0  0  0  0  0  0  0  0
    2.5976    1.1144   -0.1404 H   0  0  0  0  0  0  0  0  0  0  0  0
    0.6339    0.0004   -1.7096 H   0  0  0  0  0  0  0  0  0  0  0  0
   -0.4721   -1.9318   -1.2721 H   0  0  0  0  0  0  0  0  0  0  0  0
    0.4018   -2.0685    0.2631 H   0  0  0  0  0  0  0  0  0  0  0  0
   -2.2677   -1.9856    0.1756 H   0  0  0  0  0  0  0  0  0  0  0  0
   -1.3599   -1.2242    1.5036 H   0  0  0  0  0  0  0  0  0  0  0  0
   -2.6045    0.1440   -0.9473 H   0  0  0  0  0  0  0  0  0  0  0  0
   -2.8377    0.5416    0.7895 H   0  0  0  0  0  0  0  0  0  0  0  0
  1  2  1  0  0  0  0
  2  3  1  0  0  0  0
  3  4  1  0  0  0  0
  4  5  1  0  0  0  0
  5  6  1  0  0  0  0
  2  6  1  0  0  0  0
  1  7  1  0  0  0  0
  2  8  1  0  0  0  0
  3  9  1  0  0  0  0
  3 10  1  0  0  0  0
  4 11  1  0  0  0  0
  4 12  1  0  0  0  0
  5 13  1  0  0  0  0
  5 14  1  0  0  0  0
M  END
$$$$
