C6H11NS
APtclcactv05262212113D 0   0.00000     0.00000
 
 19 19  0  0  0  0  0  0  0  0999 V2000
    2.5506   -0.7180   -0.6262 C   0  0  0  0  0  0  0  0  0  0  0  0
    1.4423   -0.4331    0.3894 C   0  0  0  0  0  0  0  0  0  0  0  0
    0.7428    1.2493    0.1381 S   0  0  0  0  0  0  0  0  0  0  0  0
   -0.9881    0.6907    0.4164 C   0  0  0  0  0  0  0  0  0  0  0  0
   -1.9435    1.3484   -0.5814 C   0  0  0  0  0  0  0  0  0  0  0  0
   -0.8742   -0.8001    0.1582 C   0  0  0  0  0  0  0  0  0  0  0  0
    0.2782   -1.3014    0.1499 N   0  0  0  0  0  0  0  0  0  0  0  0
   -2.0972   -1.6478   -0.0800 C   0  0  0  0  0  0  0  0  0  0  0  0
    3.3484    0.0153   -0.5085 H   0  0  0  0  0  0  0  0  0  0  0  0
    2.9491   -1.7185   -0.4580 H   0  0  0  0  0  0  0  0  0  0  0  0
    2.1440   -0.6537   -1.6354 H   0  0  0  0  0  0  0  0  0  0  0  0
    1.8131   -0.5500    1.4077 H   0  0  0  0  0  0  0  0  0  0  0  0
   -1.3018    0.8871    1.4417 H   0  0  0  0  0  0  0  0  0  0  0  0
   -1.6336    1.1026   -1.5971 H   0  0  0  0  0  0  0  0  0  0  0  0
   -2.9556    0.9813   -0.4115 H   0  0  0  0  0  0  0  0  0  0  0  0
   -1.9217    2.4298   -0.4466 H   0  0  0  0  0  0  0  0  0  0  0  0
   -2.3204   -1.6719   -1.1466 H   0  0  0  0  0  0  0  0  0  0  0  0
   -1.9115   -2.6614    0.2753 H   0  0  0  0  0  0  0  0  0  0  0  0
   -2.9441   -1.2233    0.4590 H   0  0  0  0  0  0  0  0  0  0  0  0
  1  2  1  0  0  0  0
  2  3  1  0  0  0  0
  3  4  1  0  0  0  0
  4  5  1  0  0  0  0
  4  6  1  0  0  0  0
  6  7  2  0  0  0  0
  2  7  1  0  0  0  0
  6  8  1  0  0  0  0
  1  9  1  0  0  0  0
  1 10  1  0  0  0  0
  1 11  1  0  0  0  0
  2 12  1  0  0  0  0
  4 13  1  0  0  0  0
  5 14  1  0  0  0  0
  5 15  1  0  0  0  0
  5 16  1  0  0  0  0
  8 17  1  0  0  0  0
  8 18  1  0  0  0  0
  8 19  1  0  0  0  0
M  END
$$$$
