C6H11NS
APtclcactv05262212113D 0   0.00000     0.00000
 
 19 19  0  0  0  0  0  0  0  0999 V2000
    1.4775    1.9766    0.5925 C   0  0  0  0  0  0  0  0  0  0  0  0
    0.9031    0.9054   -0.3367 C   0  0  0  0  0  0  0  0  0  0  0  0
    1.1997   -0.4838    0.2508 C   0  0  0  0  0  0  0  0  0  0  0  0
   -0.4606   -1.1993    0.4797 S   0  0  0  0  0  0  0  0  0  0  0  0
   -1.3401    0.2044   -0.1375 C   0  0  0  0  0  0  0  0  0  0  0  0
   -0.5200    1.1168   -0.4821 N   0  0  0  0  0  0  0  0  0  0  0  0
   -2.8400    0.3070   -0.2409 C   0  0  0  0  0  0  0  0  0  0  0  0
    2.0189   -1.3227   -0.7321 C   0  0  0  0  0  0  0  0  0  0  0  0
    2.5550    1.8396    0.6826 H   0  0  0  0  0  0  0  0  0  0  0  0
    1.2699    2.9642    0.1806 H   0  0  0  0  0  0  0  0  0  0  0  0
    1.0166    1.8891    1.5764 H   0  0  0  0  0  0  0  0  0  0  0  0
    1.3774    0.9889   -1.3146 H   0  0  0  0  0  0  0  0  0  0  0  0
    1.7160   -0.3954    1.2067 H   0  0  0  0  0  0  0  0  0  0  0  0
   -3.2402    0.7248    0.6829 H   0  0  0  0  0  0  0  0  0  0  0  0
   -3.1031    0.9553   -1.0767 H   0  0  0  0  0  0  0  0  0  0  0  0
   -3.2617   -0.6849   -0.4037 H   0  0  0  0  0  0  0  0  0  0  0  0
    2.9630   -0.8193   -0.9404 H   0  0  0  0  0  0  0  0  0  0  0  0
    2.2176   -2.3019   -0.2964 H   0  0  0  0  0  0  0  0  0  0  0  0
    1.4597   -1.4445   -1.6598 H   0  0  0  0  0  0  0  0  0  0  0  0
  1  2  1  0  0  0  0
  2  3  1  0  0  0  0
  3  4  1  0  0  0  0
  4  5  1  0  0  0  0
  5  6  2  0  0  0  0
  2  6  1  0  0  0  0
  5  7  1  0  0  0  0
  3  8  1  0  0  0  0
  1  9  1  0  0  0  0
  1 10  1  0  0  0  0
  1 11  1  0  0  0  0
  2 12  1  0  0  0  0
  3 13  1  0  0  0  0
  7 14  1  0  0  0  0
  7 15  1  0  0  0  0
  7 16  1  0  0  0  0
  8 17  1  0  0  0  0
  8 18  1  0  0  0  0
  8 19  1  0  0  0  0
M  END
$$$$
