C5H8O
APtclcactv05262212242D 0   0.00000     0.00000
 
 14 13  0  0  0  0  0  0  0  0999 V2000
    5.4641   -0.0600    0.0000 C   0  0  0  0  0  0  0  0  0  0  0  0
    4.5981    0.4400    0.0000 C   0  0  0  0  0  0  0  0  0  0  0  0
    3.7321   -0.0600    0.0000 C   0  0  0  0  0  0  0  0  0  0  0  0
    3.7321   -1.0600    0.0000 C   0  0  0  0  0  0  0  0  0  0  0  0
    2.8660    0.4400    0.0000 C   0  0  0  0  0  0  0  0  0  0  0  0
    2.0000   -0.0600    0.0000 O   0  0  0  0  0  0  0  0  0  0  0  0
    5.1541   -0.5969    0.0000 H   0  0  0  0  0  0  0  0  0  0  0  0
    6.0010   -0.3700    0.0000 H   0  0  0  0  0  0  0  0  0  0  0  0
    5.7741    0.4769    0.0000 H   0  0  0  0  0  0  0  0  0  0  0  0
    4.5981    1.0600    0.0000 H   0  0  0  0  0  0  0  0  0  0  0  0
    3.1121   -1.0600    0.0000 H   0  0  0  0  0  0  0  0  0  0  0  0
    3.7321   -1.6800    0.0000 H   0  0  0  0  0  0  0  0  0  0  0  0
    4.3521   -1.0600    0.0000 H   0  0  0  0  0  0  0  0  0  0  0  0
    2.8660    1.0600    0.0000 H   0  0  0  0  0  0  0  0  0  0  0  0
  1  2  1  0  0  0  0
  2  3  2  0  0  0  0
  3  4  1  0  0  0  0
  3  5  1  0  0  0  0
  5  6  2  0  0  0  0
  1  7  1  0  0  0  0
  1  8  1  0  0  0  0
  1  9  1  0  0  0  0
  2 10  1  0  0  0  0
  4 11  1  0  0  0  0
  4 12  1  0  0  0  0
  4 13  1  0  0  0  0
  5 14  1  0  0  0  0
M  END
$$$$
