C10H12O
APtclcactv05262212113D 0   0.00000     0.00000
 
 23 23  0  0  0  0  0  0  0  0999 V2000
    3.7694    1.1328   -0.0011 C   0  0  0  0  0  0  0  0  0  0  0  0
    3.1929   -0.1747   -0.0002 O   0  0  0  0  0  0  0  0  0  0  0  0
    1.8364   -0.2508   -0.0006 C   0  0  0  0  0  0  0  0  0  0  0  0
    1.2124   -1.4912    0.0002 C   0  0  0  0  0  0  0  0  0  0  0  0
   -0.1638   -1.5725    0.0003 C   0  0  0  0  0  0  0  0  0  0  0  0
   -0.9300   -0.4058   -0.0005 C   0  0  0  0  0  0  0  0  0  0  0  0
   -2.4054   -0.4885    0.0001 C   0  0  0  0  0  0  0  0  0  0  0  0
   -3.1316    0.6209   -0.0006 C   0  0  0  0  0  0  0  0  0  0  0  0
   -4.6363    0.5365   -0.0000 C   0  0  0  0  0  0  0  0  0  0  0  0
   -0.2990    0.8392   -0.0013 C   0  0  0  0  0  0  0  0  0  0  0  0
    1.0776    0.9122    0.0040 C   0  0  0  0  0  0  0  0  0  0  0  0
    4.8563    1.0507   -0.0007 H   0  0  0  0  0  0  0  0  0  0  0  0
    3.4461    1.6719   -0.8916 H   0  0  0  0  0  0  0  0  0  0  0  0
    3.4455    1.6733    0.8883 H   0  0  0  0  0  0  0  0  0  0  0  0
    1.8059   -2.3935    0.0004 H   0  0  0  0  0  0  0  0  0  0  0  0
   -0.6484   -2.5377    0.0005 H   0  0  0  0  0  0  0  0  0  0  0  0
   -2.8922   -1.4526    0.0011 H   0  0  0  0  0  0  0  0  0  0  0  0
   -2.6448    1.5849   -0.0016 H   0  0  0  0  0  0  0  0  0  0  0  0
   -4.9706    0.0024   -0.8894 H   0  0  0  0  0  0  0  0  0  0  0  0
   -4.9700    0.0039    0.8905 H   0  0  0  0  0  0  0  0  0  0  0  0
   -5.0565    1.5423   -0.0007 H   0  0  0  0  0  0  0  0  0  0  0  0
   -0.8885    1.7441   -0.0019 H   0  0  0  0  0  0  0  0  0  0  0  0
    1.5666    1.8752    0.0034 H   0  0  0  0  0  0  0  0  0  0  0  0
  1  2  1  0  0  0  0
  2  3  1  0  0  0  0
  3  4  1  0  0  0  0
  4  5  2  0  0  0  0
  5  6  1  0  0  0  0
  6  7  1  0  0  0  0
  7  8  2  0  0  0  0
  8  9  1  0  0  0  0
  6 10  2  0  0  0  0
 10 11  1  0  0  0  0
  3 11  2  0  0  0  0
  1 12  1  0  0  0  0
  1 13  1  0  0  0  0
  1 14  1  0  0  0  0
  4 15  1  0  0  0  0
  5 16  1  0  0  0  0
  7 17  1  0  0  0  0
  8 18  1  0  0  0  0
  9 19  1  0  0  0  0
  9 20  1  0  0  0  0
  9 21  1  0  0  0  0
 10 22  1  0  0  0  0
 11 23  1  0  0  0  0
M  END
$$$$
