C13H26O
APtclcactv05262212113D 0   0.00000     0.00000
 
 40 39  0  0  0  0  0  0  0  0999 V2000
    8.0826   -0.4331    0.0722 C   0  0  0  0  0  0  0  0  0  0  0  0
    6.8381    0.4564    0.0985 C   0  0  0  0  0  0  0  0  0  0  0  0
    5.5847   -0.4177    0.0229 C   0  0  0  0  0  0  0  0  0  0  0  0
    4.3402    0.4719    0.0491 C   0  0  0  0  0  0  0  0  0  0  0  0
    3.0868   -0.4022   -0.0264 C   0  0  0  0  0  0  0  0  0  0  0  0
    1.8422    0.4874   -0.0002 C   0  0  0  0  0  0  0  0  0  0  0  0
    0.5888   -0.3868   -0.0758 C   0  0  0  0  0  0  0  0  0  0  0  0
   -0.6557    0.5028   -0.0495 C   0  0  0  0  0  0  0  0  0  0  0  0
   -1.9091   -0.3713   -0.1251 C   0  0  0  0  0  0  0  0  0  0  0  0
   -3.1537    0.5183   -0.0989 C   0  0  0  0  0  0  0  0  0  0  0  0
   -4.4071   -0.3559   -0.1745 C   0  0  0  0  0  0  0  0  0  0  0  0
   -5.6516    0.5337   -0.1482 C   0  0  0  0  0  0  0  0  0  0  0  0
   -6.8862   -0.3273   -0.2227 C   0  0  0  0  0  0  0  0  0  0  0  0
   -7.7418   -0.2304    0.6240 O   0  0  0  0  0  0  0  0  0  0  0  0
    8.9756    0.1896    0.1261 H   0  0  0  0  0  0  0  0  0  0  0  0
    8.0616   -1.1126    0.9243 H   0  0  0  0  0  0  0  0  0  0  0  0
    8.0973   -1.0102   -0.8524 H   0  0  0  0  0  0  0  0  0  0  0  0
    6.8234    1.0335    1.0231 H   0  0  0  0  0  0  0  0  0  0  0  0
    6.8592    1.1359   -0.7536 H   0  0  0  0  0  0  0  0  0  0  0  0
    5.5994   -0.9947   -0.9017 H   0  0  0  0  0  0  0  0  0  0  0  0
    5.5637   -1.0971    0.8749 H   0  0  0  0  0  0  0  0  0  0  0  0
    4.3255    1.0490    0.9738 H   0  0  0  0  0  0  0  0  0  0  0  0
    4.3612    1.1514   -0.8029 H   0  0  0  0  0  0  0  0  0  0  0  0
    3.1014   -0.9793   -0.9510 H   0  0  0  0  0  0  0  0  0  0  0  0
    3.0657   -1.0817    0.8256 H   0  0  0  0  0  0  0  0  0  0  0  0
    1.8275    1.0644    0.9244 H   0  0  0  0  0  0  0  0  0  0  0  0
    1.8633    1.1668   -0.8522 H   0  0  0  0  0  0  0  0  0  0  0  0
    0.6035   -0.9638   -1.0004 H   0  0  0  0  0  0  0  0  0  0  0  0
    0.5678   -1.0662    0.7763 H   0  0  0  0  0  0  0  0  0  0  0  0
   -0.6704    1.0799    0.8751 H   0  0  0  0  0  0  0  0  0  0  0  0
   -0.6347    1.1823   -0.9016 H   0  0  0  0  0  0  0  0  0  0  0  0
   -1.8944   -0.9484   -1.0497 H   0  0  0  0  0  0  0  0  0  0  0  0
   -1.9302   -1.0508    0.7269 H   0  0  0  0  0  0  0  0  0  0  0  0
   -3.1684    1.0953    0.8257 H   0  0  0  0  0  0  0  0  0  0  0  0
   -3.1326    1.1977   -0.9509 H   0  0  0  0  0  0  0  0  0  0  0  0
   -4.3924   -0.9329   -1.0991 H   0  0  0  0  0  0  0  0  0  0  0  0
   -4.4281   -1.0353    0.6776 H   0  0  0  0  0  0  0  0  0  0  0  0
   -5.6663    1.1108    0.7764 H   0  0  0  0  0  0  0  0  0  0  0  0
   -5.6306    1.2132   -1.0003 H   0  0  0  0  0  0  0  0  0  0  0  0
   -7.0057   -1.0309   -1.0332 H   0  0  0  0  0  0  0  0  0  0  0  0
  1  2  1  0  0  0  0
  2  3  1  0  0  0  0
  3  4  1  0  0  0  0
  4  5  1  0  0  0  0
  5  6  1  0  0  0  0
  6  7  1  0  0  0  0
  7  8  1  0  0  0  0
  8  9  1  0  0  0  0
  9 10  1  0  0  0  0
 10 11  1  0  0  0  0
 11 12  1  0  0  0  0
 12 13  1  0  0  0  0
 13 14  2  0  0  0  0
  1 15  1  0  0  0  0
  1 16  1  0  0  0  0
  1 17  1  0  0  0  0
  2 18  1  0  0  0  0
  2 19  1  0  0  0  0
  3 20  1  0  0  0  0
  3 21  1  0  0  0  0
  4 22  1  0  0  0  0
  4 23  1  0  0  0  0
  5 24  1  0  0  0  0
  5 25  1  0  0  0  0
  6 26  1  0  0  0  0
  6 27  1  0  0  0  0
  7 28  1  0  0  0  0
  7 29  1  0  0  0  0
  8 30  1  0  0  0  0
  8 31  1  0  0  0  0
  9 32  1  0  0  0  0
  9 33  1  0  0  0  0
 10 34  1  0  0  0  0
 10 35  1  0  0  0  0
 11 36  1  0  0  0  0
 11 37  1  0  0  0  0
 12 38  1  0  0  0  0
 12 39  1  0  0  0  0
 13 40  1  0  0  0  0
M  END
$$$$
