C10H12O
APtclcactv05262212113D 0   0.00000     0.00000
 
 23 23  0  0  0  0  0  0  0  0999 V2000
    1.2145   -0.1263   -1.7438 C   0  0  0  0  0  0  0  0  0  0  0  0
    0.7947   -0.5908   -0.3478 C   0  0  0  0  0  0  0  0  0  0  0  0
    1.6533    0.1143    0.7040 C   0  0  0  0  0  0  0  0  0  0  0  0
    3.0886   -0.3200    0.5543 C   0  0  0  0  0  0  0  0  0  0  0  0
    3.9571    0.5060    0.4069 O   0  0  0  0  0  0  0  0  0  0  0  0
   -0.6562   -0.2524   -0.1210 C   0  0  0  0  0  0  0  0  0  0  0  0
   -1.5677   -1.2580    0.1412 C   0  0  0  0  0  0  0  0  0  0  0  0
   -2.8986   -0.9476    0.3492 C   0  0  0  0  0  0  0  0  0  0  0  0
   -3.3179    0.3686    0.2954 C   0  0  0  0  0  0  0  0  0  0  0  0
   -2.4063    1.3743    0.0341 C   0  0  0  0  0  0  0  0  0  0  0  0
   -1.0746    1.0643   -0.1696 C   0  0  0  0  0  0  0  0  0  0  0  0
    2.2639   -0.3711   -1.9079 H   0  0  0  0  0  0  0  0  0  0  0  0
    0.6028   -0.6286   -2.4932 H   0  0  0  0  0  0  0  0  0  0  0  0
    1.0759    0.9518   -1.8249 H   0  0  0  0  0  0  0  0  0  0  0  0
    0.9332   -1.6689   -0.2667 H   0  0  0  0  0  0  0  0  0  0  0  0
    1.5839    1.1933    0.5659 H   0  0  0  0  0  0  0  0  0  0  0  0
    1.2963   -0.1482    1.6999 H   0  0  0  0  0  0  0  0  0  0  0  0
    3.3404   -1.3699    0.5787 H   0  0  0  0  0  0  0  0  0  0  0  0
   -1.2401   -2.2863    0.1832 H   0  0  0  0  0  0  0  0  0  0  0  0
   -3.6109   -1.7333    0.5534 H   0  0  0  0  0  0  0  0  0  0  0  0
   -4.3578    0.6110    0.4572 H   0  0  0  0  0  0  0  0  0  0  0  0
   -2.7339    2.4025   -0.0083 H   0  0  0  0  0  0  0  0  0  0  0  0
   -0.3623    1.8500   -0.3738 H   0  0  0  0  0  0  0  0  0  0  0  0
  1  2  1  0  0  0  0
  2  3  1  0  0  0  0
  3  4  1  0  0  0  0
  4  5  2  0  0  0  0
  2  6  1  0  0  0  0
  6  7  2  0  0  0  0
  7  8  1  0  0  0  0
  8  9  2  0  0  0  0
  9 10  1  0  0  0  0
 10 11  2  0  0  0  0
  6 11  1  0  0  0  0
  1 12  1  0  0  0  0
  1 13  1  0  0  0  0
  1 14  1  0  0  0  0
  2 15  1  0  0  0  0
  3 16  1  0  0  0  0
  3 17  1  0  0  0  0
  4 18  1  0  0  0  0
  7 19  1  0  0  0  0
  8 20  1  0  0  0  0
  9 21  1  0  0  0  0
 10 22  1  0  0  0  0
 11 23  1  0  0  0  0
M  END
$$$$
