C11H22O
APtclcactv05262212103D 0   0.00000     0.00000
 
 34 33  0  0  0  0  0  0  0  0999 V2000
    6.8272   -0.4298    0.0805 C   0  0  0  0  0  0  0  0  0  0  0  0
    5.5843    0.4621    0.1042 C   0  0  0  0  0  0  0  0  0  0  0  0
    4.3297   -0.4090    0.0144 C   0  0  0  0  0  0  0  0  0  0  0  0
    3.0868    0.4829    0.0382 C   0  0  0  0  0  0  0  0  0  0  0  0
    1.8322   -0.3882   -0.0516 C   0  0  0  0  0  0  0  0  0  0  0  0
    0.5893    0.5037   -0.0279 C   0  0  0  0  0  0  0  0  0  0  0  0
   -0.6653   -0.3674   -0.1177 C   0  0  0  0  0  0  0  0  0  0  0  0
   -1.9082    0.5245   -0.0940 C   0  0  0  0  0  0  0  0  0  0  0  0
   -3.1628   -0.3466   -0.1837 C   0  0  0  0  0  0  0  0  0  0  0  0
   -4.4058    0.5453   -0.1600 C   0  0  0  0  0  0  0  0  0  0  0  0
   -5.6415   -0.3127   -0.2485 C   0  0  0  0  0  0  0  0  0  0  0  0
   -6.5026   -0.2197    0.5930 O   0  0  0  0  0  0  0  0  0  0  0  0
    6.7991   -1.1148    0.9279 H   0  0  0  0  0  0  0  0  0  0  0  0
    6.8470   -1.0008   -0.8478 H   0  0  0  0  0  0  0  0  0  0  0  0
    7.7210    0.1908    0.1445 H   0  0  0  0  0  0  0  0  0  0  0  0
    5.5645    1.0331    1.0325 H   0  0  0  0  0  0  0  0  0  0  0  0
    5.6124    1.1471   -0.7432 H   0  0  0  0  0  0  0  0  0  0  0  0
    4.3495   -0.9800   -0.9138 H   0  0  0  0  0  0  0  0  0  0  0  0
    4.3016   -1.0940    0.8618 H   0  0  0  0  0  0  0  0  0  0  0  0
    3.0670    1.0539    0.9664 H   0  0  0  0  0  0  0  0  0  0  0  0
    3.1149    1.1679   -0.8093 H   0  0  0  0  0  0  0  0  0  0  0  0
    1.8520   -0.9592   -0.9799 H   0  0  0  0  0  0  0  0  0  0  0  0
    1.8041   -1.0732    0.7958 H   0  0  0  0  0  0  0  0  0  0  0  0
    0.5695    1.0747    0.9003 H   0  0  0  0  0  0  0  0  0  0  0  0
    0.6174    1.1887   -0.8753 H   0  0  0  0  0  0  0  0  0  0  0  0
   -0.6455   -0.9384   -1.0459 H   0  0  0  0  0  0  0  0  0  0  0  0
   -0.6935   -1.0524    0.7297 H   0  0  0  0  0  0  0  0  0  0  0  0
   -1.9280    1.0955    0.8343 H   0  0  0  0  0  0  0  0  0  0  0  0
   -1.8801    1.2095   -0.9414 H   0  0  0  0  0  0  0  0  0  0  0  0
   -3.1431   -0.9176   -1.1120 H   0  0  0  0  0  0  0  0  0  0  0  0
   -3.1910   -1.0316    0.6637 H   0  0  0  0  0  0  0  0  0  0  0  0
   -4.4256    1.1163    0.7682 H   0  0  0  0  0  0  0  0  0  0  0  0
   -4.3776    1.2303   -1.0074 H   0  0  0  0  0  0  0  0  0  0  0  0
   -5.7570   -1.0108   -1.0644 H   0  0  0  0  0  0  0  0  0  0  0  0
  1  2  1  0  0  0  0
  2  3  1  0  0  0  0
  3  4  1  0  0  0  0
  4  5  1  0  0  0  0
  5  6  1  0  0  0  0
  6  7  1  0  0  0  0
  7  8  1  0  0  0  0
  8  9  1  0  0  0  0
  9 10  1  0  0  0  0
 10 11  1  0  0  0  0
 11 12  2  0  0  0  0
  1 13  1  0  0  0  0
  1 14  1  0  0  0  0
  1 15  1  0  0  0  0
  2 16  1  0  0  0  0
  2 17  1  0  0  0  0
  3 18  1  0  0  0  0
  3 19  1  0  0  0  0
  4 20  1  0  0  0  0
  4 21  1  0  0  0  0
  5 22  1  0  0  0  0
  5 23  1  0  0  0  0
  6 24  1  0  0  0  0
  6 25  1  0  0  0  0
  7 26  1  0  0  0  0
  7 27  1  0  0  0  0
  8 28  1  0  0  0  0
  8 29  1  0  0  0  0
  9 30  1  0  0  0  0
  9 31  1  0  0  0  0
 10 32  1  0  0  0  0
 10 33  1  0  0  0  0
 11 34  1  0  0  0  0
M  END
$$$$
