C8H8O4
APtclcactv05262212103D 0   0.00000     0.00000
 
 20 20  0  0  0  0  0  0  0  0999 V2000
    1.9689    2.5674    0.0012 C   0  0  0  0  0  0  0  0  0  0  0  0
    2.3192    1.1820    0.0101 O   0  0  0  0  0  0  0  0  0  0  0  0
    1.2958    0.2863    0.0104 C   0  0  0  0  0  0  0  0  0  0  0  0
   -0.0116    0.7316    0.0022 C   0  0  0  0  0  0  0  0  0  0  0  0
   -1.0610   -0.1919    0.0025 C   0  0  0  0  0  0  0  0  0  0  0  0
   -0.7824   -1.5614    0.0110 C   0  0  0  0  0  0  0  0  0  0  0  0
    0.5240   -1.9986    0.0191 C   0  0  0  0  0  0  0  0  0  0  0  0
    1.5664   -1.0813    0.0130 C   0  0  0  0  0  0  0  0  0  0  0  0
    2.8524   -1.5174    0.0206 O   0  0  0  0  0  0  0  0  0  0  0  0
   -2.4589    0.2779   -0.0057 C   0  0  0  0  0  0  0  0  0  0  0  0
   -3.4693   -0.6136   -0.0054 O   0  0  0  0  0  0  0  0  0  0  0  0
   -2.6995    1.4689   -0.0127 O   0  0  0  0  0  0  0  0  0  0  0  0
    1.3856    2.7889   -0.8925 H   0  0  0  0  0  0  0  0  0  0  0  0
    1.3778    2.7984    0.8874 H   0  0  0  0  0  0  0  0  0  0  0  0
    2.8761    3.1716    0.0021 H   0  0  0  0  0  0  0  0  0  0  0  0
   -0.2226    1.7907   -0.0040 H   0  0  0  0  0  0  0  0  0  0  0  0
   -1.5913   -2.2771    0.0116 H   0  0  0  0  0  0  0  0  0  0  0  0
    0.7379   -3.0571    0.0257 H   0  0  0  0  0  0  0  0  0  0  0  0
    3.2272   -1.6522   -0.8605 H   0  0  0  0  0  0  0  0  0  0  0  0
   -4.3685   -0.2580   -0.0110 H   0  0  0  0  0  0  0  0  0  0  0  0
  1  2  1  0  0  0  0
  2  3  1  0  0  0  0
  3  4  1  0  0  0  0
  4  5  2  0  0  0  0
  5  6  1  0  0  0  0
  6  7  2  0  0  0  0
  7  8  1  0  0  0  0
  3  8  2  0  0  0  0
  8  9  1  0  0  0  0
  5 10  1  0  0  0  0
 10 11  1  0  0  0  0
 10 12  2  0  0  0  0
  1 13  1  0  0  0  0
  1 14  1  0  0  0  0
  1 15  1  0  0  0  0
  4 16  1  0  0  0  0
  6 17  1  0  0  0  0
  7 18  1  0  0  0  0
  9 19  1  0  0  0  0
 11 20  1  0  0  0  0
M  END
$$$$
