C10H18O
APtclcactv05262212103D 0   0.00000     0.00000
 
 29 28  0  0  0  0  0  0  0  0999 V2000
    5.1401    1.4827    0.1132 C   0  0  0  0  0  0  0  0  0  0  0  0
    4.2980    0.2199    0.3052 C   0  0  0  0  0  0  0  0  0  0  0  0
    2.8833    0.4650   -0.2234 C   0  0  0  0  0  0  0  0  0  0  0  0
    2.0412   -0.7979   -0.0314 C   0  0  0  0  0  0  0  0  0  0  0  0
    0.6264   -0.5527   -0.5600 C   0  0  0  0  0  0  0  0  0  0  0  0
   -0.2030   -1.7966   -0.3710 C   0  0  0  0  0  0  0  0  0  0  0  0
   -1.3606   -1.7256    0.2383 C   0  0  0  0  0  0  0  0  0  0  0  0
   -1.9414   -0.3825    0.5985 C   0  0  0  0  0  0  0  0  0  0  0  0
   -3.3586   -0.2714    0.0327 C   0  0  0  0  0  0  0  0  0  0  0  0
   -3.9394    1.0717    0.3929 C   0  0  0  0  0  0  0  0  0  0  0  0
   -4.3644    1.7977   -0.4734 O   0  0  0  0  0  0  0  0  0  0  0  0
    5.1864    1.7309   -0.9472 H   0  0  0  0  0  0  0  0  0  0  0  0
    4.6860    2.3089    0.6602 H   0  0  0  0  0  0  0  0  0  0  0  0
    6.1480    1.3081    0.4898 H   0  0  0  0  0  0  0  0  0  0  0  0
    4.7522   -0.6063   -0.2419 H   0  0  0  0  0  0  0  0  0  0  0  0
    4.2517   -0.0283    1.3655 H   0  0  0  0  0  0  0  0  0  0  0  0
    2.4291    1.2912    0.3236 H   0  0  0  0  0  0  0  0  0  0  0  0
    2.9295    0.7132   -1.2838 H   0  0  0  0  0  0  0  0  0  0  0  0
    2.4953   -1.6241   -0.5785 H   0  0  0  0  0  0  0  0  0  0  0  0
    1.9949   -1.0460    1.0289 H   0  0  0  0  0  0  0  0  0  0  0  0
    0.1723    0.2735   -0.0130 H   0  0  0  0  0  0  0  0  0  0  0  0
    0.6727   -0.3045   -1.6204 H   0  0  0  0  0  0  0  0  0  0  0  0
    0.1568   -2.7465   -0.7377 H   0  0  0  0  0  0  0  0  0  0  0  0
   -1.8986   -2.6297    0.4824 H   0  0  0  0  0  0  0  0  0  0  0  0
   -1.9741   -0.2799    1.6832 H   0  0  0  0  0  0  0  0  0  0  0  0
   -1.3191    0.4072    0.1775 H   0  0  0  0  0  0  0  0  0  0  0  0
   -3.3258   -0.3740   -1.0520 H   0  0  0  0  0  0  0  0  0  0  0  0
   -3.9808   -1.0611    0.4538 H   0  0  0  0  0  0  0  0  0  0  0  0
   -3.9755    1.3850    1.4259 H   0  0  0  0  0  0  0  0  0  0  0  0
  1  2  1  0  0  0  0
  2  3  1  0  0  0  0
  3  4  1  0  0  0  0
  4  5  1  0  0  0  0
  5  6  1  0  0  0  0
  6  7  2  0  0  0  0
  7  8  1  0  0  0  0
  8  9  1  0  0  0  0
  9 10  1  0  0  0  0
 10 11  2  0  0  0  0
  1 12  1  0  0  0  0
  1 13  1  0  0  0  0
  1 14  1  0  0  0  0
  2 15  1  0  0  0  0
  2 16  1  0  0  0  0
  3 17  1  0  0  0  0
  3 18  1  0  0  0  0
  4 19  1  0  0  0  0
  4 20  1  0  0  0  0
  5 21  1  0  0  0  0
  5 22  1  0  0  0  0
  6 23  1  0  0  0  0
  7 24  1  0  0  0  0
  8 25  1  0  0  0  0
  8 26  1  0  0  0  0
  9 27  1  0  0  0  0
  9 28  1  0  0  0  0
 10 29  1  0  0  0  0
M  END
$$$$
