
 OpenBabel06272214203D

 16 16  0  0  0  0  0  0  0  0999 V2000
   -2.8438    0.0992    0.0048 C   0  0  0  0  0  0  0  0  0  0  0  0
   -1.3497    0.0435    0.0005 C   0  0  0  0  0  0  0  0  0  0  0  0
   -0.5819    1.2020   -0.0029 C   0  0  0  0  0  0  0  0  0  0  0  0
    0.7720    1.1889   -0.0035 N   0  0  0  0  0  0  0  0  0  0  0  0
    1.3496   -0.0361   -0.0005 C   0  0  0  0  0  0  0  0  0  0  0  0
    0.5825   -1.1955    0.0028 C   0  0  0  0  0  0  0  0  0  0  0  0
   -0.7719   -1.1824    0.0032 N   0  0  0  0  0  0  0  0  0  0  0  0
    2.8434   -0.1033   -0.0047 C   0  0  0  0  0  0  0  0  0  0  0  0
   -3.2114    1.1302    0.0004 H   0  0  0  0  0  0  0  0  0  0  0  0
   -3.2310   -0.3973    0.8999 H   0  0  0  0  0  0  0  0  0  0  0  0
   -3.2380   -0.4076   -0.8814 H   0  0  0  0  0  0  0  0  0  0  0  0
   -1.0336    2.1878   -0.0050 H   0  0  0  0  0  0  0  0  0  0  0  0
    1.0373   -2.1802    0.0050 H   0  0  0  0  0  0  0  0  0  0  0  0
    3.2749    0.9030   -0.0008 H   0  0  0  0  0  0  0  0  0  0  0  0
    3.1976   -0.6214   -0.9010 H   0  0  0  0  0  0  0  0  0  0  0  0
    3.2038   -0.6309    0.8837 H   0  0  0  0  0  0  0  0  0  0  0  0
  1  2  1  0  0  0  0
  1  9  1  0  0  0  0
  1 10  1  0  0  0  0
  1 11  1  0  0  0  0
  2  3  2  0  0  0  0
  2  7  1  0  0  0  0
  3  4  1  0  0  0  0
  3 12  1  0  0  0  0
  4  5  2  0  0  0  0
  5  6  1  0  0  0  0
  5  8  1  0  0  0  0
  6  7  2  0  0  0  0
  6 13  1  0  0  0  0
  8 14  1  0  0  0  0
  8 15  1  0  0  0  0
  8 16  1  0  0  0  0
M  END
$$$$
