
 OpenBabel06272214203D

 22 21  0  0  0  0  0  0  0  0999 V2000
    1.0561   -0.0559    0.0581 C   0  0  0  0  0  0  0  0  0  0  0  0
    2.5730   -0.0456    0.0489 C   0  0  0  0  0  0  0  0  0  0  0  0
    3.0982    1.0224   -0.9062 C   0  0  0  0  0  0  0  0  0  0  0  0
    4.6203    1.0298   -0.9129 C   0  0  0  0  0  0  0  0  0  0  0  0
    5.1743    2.0886   -1.8597 C   0  0  0  0  0  0  0  0  0  0  0  0
    6.6908    2.0781   -1.8503 C   0  0  0  0  0  0  0  0  0  0  0  0
    7.3443    1.2991   -1.1536 O   0  0  0  0  0  0  0  0  0  0  0  0
    7.3929    3.0684   -2.7359 C   0  0  0  0  0  0  0  0  0  0  0  0
    0.6847   -0.8225    0.7437 H   0  0  0  0  0  0  0  0  0  0  0  0
    0.6647   -0.2689   -0.9417 H   0  0  0  0  0  0  0  0  0  0  0  0
    0.6647    0.9140    0.3810 H   0  0  0  0  0  0  0  0  0  0  0  0
    2.9437   -1.0326   -0.2523 H   0  0  0  0  0  0  0  0  0  0  0  0
    2.9437    0.1439    1.0633 H   0  0  0  0  0  0  0  0  0  0  0  0
    2.7242    2.0076   -0.6025 H   0  0  0  0  0  0  0  0  0  0  0  0
    2.7242    0.8302   -1.9191 H   0  0  0  0  0  0  0  0  0  0  0  0
    4.9912    0.0405   -1.2096 H   0  0  0  0  0  0  0  0  0  0  0  0
    4.9912    1.2147    0.1033 H   0  0  0  0  0  0  0  0  0  0  0  0
    4.8301    3.0834   -1.5550 H   0  0  0  0  0  0  0  0  0  0  0  0
    4.8301    1.8965   -2.8822 H   0  0  0  0  0  0  0  0  0  0  0  0
    6.6727    3.6809   -3.2837 H   0  0  0  0  0  0  0  0  0  0  0  0
    8.0134    2.5248   -3.4527 H   0  0  0  0  0  0  0  0  0  0  0  0
    8.0134    3.7202   -2.1160 H   0  0  0  0  0  0  0  0  0  0  0  0
  1  2  1  0  0  0  0
  1  9  1  0  0  0  0
  1 10  1  0  0  0  0
  1 11  1  0  0  0  0
  2  3  1  0  0  0  0
  2 12  1  0  0  0  0
  2 13  1  0  0  0  0
  3  4  1  0  0  0  0
  3 14  1  0  0  0  0
  3 15  1  0  0  0  0
  4  5  1  0  0  0  0
  4 16  1  0  0  0  0
  4 17  1  0  0  0  0
  5  6  1  0  0  0  0
  5 18  1  0  0  0  0
  5 19  1  0  0  0  0
  6  7  2  0  0  0  0
  6  8  1  0  0  0  0
  8 20  1  0  0  0  0
  8 21  1  0  0  0  0
  8 22  1  0  0  0  0
M  END
$$$$
