
 OpenBabel06272214203D

 13 13  0  0  0  0  0  0  0  0999 V2000
    1.0228    0.0519   -0.0208 C   0  0  0  0  0  0  0  0  0  0  0  0
    2.5142    0.0698   -0.0162 C   0  0  0  0  0  0  0  0  0  0  0  0
    3.2514   -0.9820   -0.1656 N   0  0  0  0  0  0  0  0  0  0  0  0
    4.6784   -0.5990   -0.1026 C   0  0  0  0  0  0  0  0  0  0  0  0
    4.8474    0.8814   -0.4129 C   0  0  0  0  0  0  0  0  0  0  0  0
    3.3049    1.6120    0.1546 S   0  0  0  0  0  0  0  0  0  0  0  0
    0.6473   -0.9716   -0.1035 H   0  0  0  0  0  0  0  0  0  0  0  0
    0.6539    0.6324   -0.8720 H   0  0  0  0  0  0  0  0  0  0  0  0
    0.6421    0.4970    0.9030 H   0  0  0  0  0  0  0  0  0  0  0  0
    5.2429   -1.1936   -0.8299 H   0  0  0  0  0  0  0  0  0  0  0  0
    5.0793   -0.8430    0.8891 H   0  0  0  0  0  0  0  0  0  0  0  0
    4.9449    1.0433   -1.4907 H   0  0  0  0  0  0  0  0  0  0  0  0
    5.7100    1.3190    0.0953 H   0  0  0  0  0  0  0  0  0  0  0  0
  1  2  1  0  0  0  0
  1  7  1  0  0  0  0
  1  8  1  0  0  0  0
  1  9  1  0  0  0  0
  2  3  2  0  0  0  0
  2  6  1  0  0  0  0
  3  4  1  0  0  0  0
  4  5  1  0  0  0  0
  4 10  1  0  0  0  0
  4 11  1  0  0  0  0
  5  6  1  0  0  0  0
  5 12  1  0  0  0  0
  5 13  1  0  0  0  0
M  END
$$$$
