
 OpenBabel06272214203D

 19 19  0  0  0  0  0  0  0  0999 V2000
    1.4190   -0.1965    0.0202 C   0  0  0  0  0  0  0  0  0  0  0  0
    0.8892    1.0940    0.0148 C   0  0  0  0  0  0  0  0  0  0  0  0
   -0.4963    1.2824    0.0114 C   0  0  0  0  0  0  0  0  0  0  0  0
   -1.3647    0.1847   -0.0373 C   0  0  0  0  0  0  0  0  0  0  0  0
   -0.8112   -1.1061   -0.0052 C   0  0  0  0  0  0  0  0  0  0  0  0
    0.5700   -1.2932    0.0250 C   0  0  0  0  0  0  0  0  0  0  0  0
   -2.8516    0.4248   -0.1785 C   0  0  0  0  0  0  0  0  0  0  0  0
   -3.6946   -0.8442   -0.3163 C   0  0  0  0  0  0  0  0  0  0  0  0
   -5.0690   -0.5338   -0.4949 O   0  0  0  0  0  0  0  0  0  0  0  0
    2.4955   -0.3456    0.0194 H   0  0  0  0  0  0  0  0  0  0  0  0
    1.5548    1.9509   -0.0025 H   0  0  0  0  0  0  0  0  0  0  0  0
   -0.8898    2.2981    0.0248 H   0  0  0  0  0  0  0  0  0  0  0  0
   -1.4339   -1.9940   -0.0226 H   0  0  0  0  0  0  0  0  0  0  0  0
    0.9718   -2.3038    0.0323 H   0  0  0  0  0  0  0  0  0  0  0  0
   -3.0212    1.0464   -1.0687 H   0  0  0  0  0  0  0  0  0  0  0  0
   -3.2147    1.0114    0.6754 H   0  0  0  0  0  0  0  0  0  0  0  0
   -3.5986   -1.4785    0.5721 H   0  0  0  0  0  0  0  0  0  0  0  0
   -3.3723   -1.4262   -1.1871 H   0  0  0  0  0  0  0  0  0  0  0  0
   -5.3741   -0.0975    0.3179 H   0  0  0  0  0  0  0  0  0  0  0  0
  1  2  2  0  0  0  0
  1  6  1  0  0  0  0
  1 10  1  0  0  0  0
  2  3  1  0  0  0  0
  2 11  1  0  0  0  0
  3  4  2  0  0  0  0
  3 12  1  0  0  0  0
  4  5  1  0  0  0  0
  4  7  1  0  0  0  0
  5  6  2  0  0  0  0
  5 13  1  0  0  0  0
  6 14  1  0  0  0  0
  7  8  1  0  0  0  0
  7 15  1  0  0  0  0
  7 16  1  0  0  0  0
  8  9  1  0  0  0  0
  8 17  1  0  0  0  0
  8 18  1  0  0  0  0
  9 19  1  0  0  0  0
M  END
$$$$
