
 OpenBabel06272214203D

 18 17  0  0  0  0  0  0  0  0999 V2000
    0.9469   -0.0631   -0.0496 C   0  0  0  0  0  0  0  0  0  0  0  0
    2.4774   -0.0515   -0.0869 C   0  0  0  0  0  0  0  0  0  0  0  0
    2.9539   -0.3802   -1.5032 C   0  0  0  0  0  0  0  0  0  0  0  0
    3.0099    1.3092    0.4070 C   0  0  0  0  0  0  0  0  0  0  0  0
    4.5373    1.3634    0.4553 C   0  0  0  0  0  0  0  0  0  0  0  0
    5.1110    2.9607    1.1002 S   0  0  0  0  0  0  0  0  0  0  0  0
    0.5584   -1.0356   -0.3717 H   0  0  0  0  0  0  0  0  0  0  0  0
    0.5280    0.7028   -0.7106 H   0  0  0  0  0  0  0  0  0  0  0  0
    0.5775    0.1238    0.9643 H   0  0  0  0  0  0  0  0  0  0  0  0
    2.8384   -0.8354    0.5896 H   0  0  0  0  0  0  0  0  0  0  0  0
    2.6412    0.3920   -2.2132 H   0  0  0  0  0  0  0  0  0  0  0  0
    2.5425   -1.3382   -1.8384 H   0  0  0  0  0  0  0  0  0  0  0  0
    4.0433   -0.4677   -1.5512 H   0  0  0  0  0  0  0  0  0  0  0  0
    2.6084    1.4953    1.4130 H   0  0  0  0  0  0  0  0  0  0  0  0
    2.6263    2.1069   -0.2412 H   0  0  0  0  0  0  0  0  0  0  0  0
    4.9692    1.2436   -0.5421 H   0  0  0  0  0  0  0  0  0  0  0  0
    4.9289    0.5674    1.0954 H   0  0  0  0  0  0  0  0  0  0  0  0
    4.6110    3.7137    0.1091 H   0  0  0  0  0  0  0  0  0  0  0  0
  1  2  1  0  0  0  0
  1  7  1  0  0  0  0
  1  8  1  0  0  0  0
  1  9  1  0  0  0  0
  2  3  1  0  0  0  0
  2  4  1  0  0  0  0
  2 10  1  0  0  0  0
  3 11  1  0  0  0  0
  3 12  1  0  0  0  0
  3 13  1  0  0  0  0
  4  5  1  0  0  0  0
  4 14  1  0  0  0  0
  4 15  1  0  0  0  0
  5  6  1  0  0  0  0
  5 16  1  0  0  0  0
  5 17  1  0  0  0  0
  6 18  1  0  0  0  0
M  END
$$$$
