
 OpenBabel06272214203D

 20 20  0  0  0  0  0  0  0  0999 V2000
    2.4929   -0.0109   -0.0128 C   0  0  0  0  0  0  0  0  0  0  0  0
    0.9944   -0.0170    0.0029 C   0  0  0  0  0  0  0  0  0  0  0  0
    0.2666   -1.2110    0.0046 C   0  0  0  0  0  0  0  0  0  0  0  0
   -1.1331   -1.1864   -0.0011 C   0  0  0  0  0  0  0  0  0  0  0  0
   -1.8244    0.0345   -0.0092 C   0  0  0  0  0  0  0  0  0  0  0  0
   -1.0889    1.2235    0.0018 C   0  0  0  0  0  0  0  0  0  0  0  0
    0.3060    1.1976    0.0058 C   0  0  0  0  0  0  0  0  0  0  0  0
   -3.3195    0.0162   -0.0387 C   0  0  0  0  0  0  0  0  0  0  0  0
   -3.9124   -1.0649   -0.0518 O   0  0  0  0  0  0  0  0  0  0  0  0
   -4.1052    1.3058   -0.0590 C   0  0  0  0  0  0  0  0  0  0  0  0
    2.8991   -1.0265    0.0004 H   0  0  0  0  0  0  0  0  0  0  0  0
    2.8757    0.5201    0.8649 H   0  0  0  0  0  0  0  0  0  0  0  0
    2.8534    0.4877   -0.9186 H   0  0  0  0  0  0  0  0  0  0  0  0
    0.7815   -2.1696    0.0056 H   0  0  0  0  0  0  0  0  0  0  0  0
   -1.6784   -2.1297   -0.0037 H   0  0  0  0  0  0  0  0  0  0  0  0
   -1.5551    2.2000    0.0036 H   0  0  0  0  0  0  0  0  0  0  0  0
    0.8509    2.1393    0.0064 H   0  0  0  0  0  0  0  0  0  0  0  0
   -3.4957    2.2057   -0.0479 H   0  0  0  0  0  0  0  0  0  0  0  0
   -4.7498    1.3415    0.8231 H   0  0  0  0  0  0  0  0  0  0  0  0
   -4.7102    1.3381   -0.9690 H   0  0  0  0  0  0  0  0  0  0  0  0
  1  2  1  0  0  0  0
  1 11  1  0  0  0  0
  1 12  1  0  0  0  0
  1 13  1  0  0  0  0
  2  3  2  0  0  0  0
  2  7  1  0  0  0  0
  3  4  1  0  0  0  0
  3 14  1  0  0  0  0
  4  5  2  0  0  0  0
  4 15  1  0  0  0  0
  5  6  1  0  0  0  0
  5  8  1  0  0  0  0
  6  7  2  0  0  0  0
  6 16  1  0  0  0  0
  7 17  1  0  0  0  0
  8  9  2  0  0  0  0
  8 10  1  0  0  0  0
 10 18  1  0  0  0  0
 10 19  1  0  0  0  0
 10 20  1  0  0  0  0
M  END
$$$$
