
 OpenBabel06272214203D

 48 51  0  0  1  0  0  0  0  0999 V2000
    0.9516    0.2343   -0.0514 C   0  0  0  0  0  0  0  0  0  0  0  0
    2.4756    0.3312    0.0947 C   0  0  2  0  0  0  0  0  0  0  0  0
    2.9613   -0.1306    1.5014 C   0  0  0  0  0  0  0  0  0  0  0  0
    2.5008   -1.4549    1.9300 C   0  0  0  0  0  0  0  0  0  0  0  0
    3.0535   -2.4711    0.9831 C   0  0  1  0  0  0  0  0  0  0  0  0
    3.0543   -1.9652   -0.6467 C   0  0  2  0  0  0  0  0  0  0  0  0
    3.4003   -0.1936   -1.1243 C   0  0  2  0  0  0  0  0  0  0  0  0
    4.2725    1.4450   -1.3258 C   0  0  0  0  0  0  0  0  0  0  0  0
    4.2430    1.7778    0.0876 C   0  0  0  0  0  0  0  0  0  0  0  0
    2.9027    1.7451    0.2502 C   0  0  0  0  0  0  0  0  0  0  0  0
    3.2115   -3.3053   -1.7652 C   0  0  0  0  0  0  0  0  0  0  0  0
    2.7022   -5.1205   -1.5128 C   0  0  0  0  0  0  0  0  0  0  0  0
    2.4357   -5.5524    0.3729 C   0  0  2  0  0  0  0  0  0  0  0  0
    2.2571   -4.0386    1.5885 C   0  0  2  0  0  0  0  0  0  0  0  0
    0.7508   -3.7868    1.5808 C   0  0  0  0  0  0  0  0  0  0  0  0
    0.3873   -3.4638    0.1355 C   0  0  0  0  0  0  0  0  0  0  0  0
    1.2373   -4.5972   -0.1599 C   0  0  0  0  0  0  0  0  0  0  0  0
    0.4796   -5.5732   -0.4468 O   0  0  0  0  0  0  0  0  0  0  0  0
    3.2504   -4.4840    0.1469 C   0  0  0  0  0  0  0  0  0  0  0  0
    2.8502   -4.3722    2.9666 C   0  0  0  0  0  0  0  0  0  0  0  0
    0.5439   -0.7102    0.2789 H   0  0  0  0  0  0  0  0  0  0  0  0
    0.5959    0.3861   -1.0737 H   0  0  0  0  0  0  0  0  0  0  0  0
    0.4662    0.9445    0.6221 H   0  0  0  0  0  0  0  0  0  0  0  0
    2.6347    0.5856    2.2633 H   0  0  0  0  0  0  0  0  0  0  0  0
    4.0556   -0.1930    1.5610 H   0  0  0  0  0  0  0  0  0  0  0  0
    1.4188   -1.4535    1.9718 H   0  0  0  0  0  0  0  0  0  0  0  0
    2.8595   -1.6582    2.9417 H   0  0  0  0  0  0  0  0  0  0  0  0
    4.1393   -2.5738    1.1671 H   0  0  0  0  0  0  0  0  0  0  0  0
    1.9887   -1.8302   -0.8191 H   0  0  0  0  0  0  0  0  0  0  0  0
    3.2034   -0.3428   -2.1947 H   0  0  0  0  0  0  0  0  0  0  0  0
    3.7340    2.4095   -1.6778 H   0  0  0  0  0  0  0  0  0  0  0  0
    5.3074    1.7000   -1.6285 H   0  0  0  0  0  0  0  0  0  0  0  0
    4.9896    1.0459    0.4392 H   0  0  0  0  0  0  0  0  0  0  0  0
    2.2534    2.3624   -0.3868 H   0  0  0  0  0  0  0  0  0  0  0  0
    4.2938   -3.3490   -1.9039 H   0  0  0  0  0  0  0  0  0  0  0  0
    2.6688   -3.0360   -2.6680 H   0  0  0  0  0  0  0  0  0  0  0  0
    3.4558   -5.7811   -1.9554 H   0  0  0  0  0  0  0  0  0  0  0  0
    1.7742   -5.2486   -2.0890 H   0  0  0  0  0  0  0  0  0  0  0  0
    2.4281   -6.5289    0.8418 H   0  0  0  0  0  0  0  0  0  0  0  0
    0.4056   -3.0549    2.3035 H   0  0  0  0  0  0  0  0  0  0  0  0
    0.2926   -4.7331    1.9243 H   0  0  0  0  0  0  0  0  0  0  0  0
    0.7490   -3.3790   -0.9167 H   0  0  0  0  0  0  0  0  0  0  0  0
    0.2861   -2.4127   -0.0444 H   0  0  0  0  0  0  0  0  0  0  0  0
    3.8989   -4.6828    1.0251 H   0  0  0  0  0  0  0  0  0  0  0  0
    4.1242   -4.8062   -0.4310 H   0  0  0  0  0  0  0  0  0  0  0  0
    3.9512   -4.3303    2.9571 H   0  0  0  0  0  0  0  0  0  0  0  0
    2.5532   -5.3731    3.2765 H   0  0  0  0  0  0  0  0  0  0  0  0
    2.5158   -3.6330    3.6914 H   0  0  0  0  0  0  0  0  0  0  0  0
  1 21  1  0  0  0  0
  1 22  1  0  0  0  0
  1 23  1  0  0  0  0
  2  3  1  0  0  0  0
  2  7  1  0  0  0  0
  2 10  1  0  0  0  0
  2  1  1  1  0  0  0
  3  4  1  0  0  0  0
  3 24  1  0  0  0  0
  3 25  1  0  0  0  0
  4  5  1  0  0  0  0
  4 26  1  0  0  0  0
  4 27  1  0  0  0  0
  5  6  1  0  0  0  0
  5 14  1  0  0  0  0
  5 28  1  6  0  0  0
  6  7  1  0  0  0  0
  6 11  1  0  0  0  0
  6 29  1  1  0  0  0
  7  8  1  0  0  0  0
  7 30  1  6  0  0  0
  8  9  1  0  0  0  0
  8 31  1  0  0  0  0
  8 32  1  0  0  0  0
  9 10  2  0  0  0  0
  9 33  1  0  0  0  0
 10 34  1  0  0  0  0
 11 12  1  0  0  0  0
 11 35  1  0  0  0  0
 11 36  1  0  0  0  0
 12 13  1  0  0  0  0
 12 37  1  0  0  0  0
 12 38  1  0  0  0  0
 13 14  1  0  0  0  0
 13 19  1  0  0  0  0
 13 39  1  1  0  0  0
 14 15  1  0  0  0  0
 14 20  1  1  0  0  0
 15 16  1  0  0  0  0
 15 40  1  0  0  0  0
 15 41  1  0  0  0  0
 16 17  1  0  0  0  0
 16 42  1  0  0  0  0
 16 43  1  0  0  0  0
 17 19  1  0  0  0  0
 17 18  2  0  0  0  0
 19 44  1  0  0  0  0
 19 45  1  0  0  0  0
 20 46  1  0  0  0  0
 20 47  1  0  0  0  0
 20 48  1  0  0  0  0
M  END
$$$$
