
 OpenBabel06272214203D

 18 18  0  0  0  0  0  0  0  0999 V2000
    0.9600    0.0074    0.0891 C   0  0  0  0  0  0  0  0  0  0  0  0
    2.3800    0.1136    0.0522 O   0  0  0  0  0  0  0  0  0  0  0  0
    3.0105    0.1578    1.2651 C   0  0  0  0  0  0  0  0  0  0  0  0
    4.1794    0.9250    1.3152 C   0  0  0  0  0  0  0  0  0  0  0  0
    4.9675    0.9493    2.4710 C   0  0  0  0  0  0  0  0  0  0  0  0
    4.5451    0.2511    3.6037 C   0  0  0  0  0  0  0  0  0  0  0  0
    3.3846   -0.5244    3.5571 C   0  0  0  0  0  0  0  0  0  0  0  0
    2.6232   -0.5767    2.3859 C   0  0  0  0  0  0  0  0  0  0  0  0
    5.2989    0.3745    4.8671 C   0  0  0  0  0  0  0  0  0  0  0  0
    4.9338   -0.1830    5.8991 O   0  0  0  0  0  0  0  0  0  0  0  0
    0.6094   -0.1298   -0.9390 H   0  0  0  0  0  0  0  0  0  0  0  0
    0.5282    0.9358    0.4747 H   0  0  0  0  0  0  0  0  0  0  0  0
    0.6022   -0.8536    0.6604 H   0  0  0  0  0  0  0  0  0  0  0  0
    4.4723    1.5152    0.4494 H   0  0  0  0  0  0  0  0  0  0  0  0
    5.8972    1.5118    2.4716 H   0  0  0  0  0  0  0  0  0  0  0  0
    3.0734   -1.0975    4.4283 H   0  0  0  0  0  0  0  0  0  0  0  0
    1.7478   -1.2160    2.3759 H   0  0  0  0  0  0  0  0  0  0  0  0
    6.1935    1.0169    4.8530 H   0  0  0  0  0  0  0  0  0  0  0  0
  1  2  1  0  0  0  0
  1 11  1  0  0  0  0
  1 12  1  0  0  0  0
  1 13  1  0  0  0  0
  2  3  1  0  0  0  0
  3  4  2  0  0  0  0
  3  8  1  0  0  0  0
  4  5  1  0  0  0  0
  4 14  1  0  0  0  0
  5  6  2  0  0  0  0
  5 15  1  0  0  0  0
  6  7  1  0  0  0  0
  6  9  1  0  0  0  0
  7  8  2  0  0  0  0
  7 16  1  0  0  0  0
  8 17  1  0  0  0  0
  9 10  2  0  0  0  0
  9 18  1  0  0  0  0
M  END
$$$$
