
 OpenBabel06272214203D

 26 27  0  0  0  0  0  0  0  0999 V2000
    1.0492   -0.0796   -0.0197 C   0  0  0  0  0  0  0  0  0  0  0  0
    2.5395   -0.1225   -0.0246 C   0  0  0  0  0  0  0  0  0  0  0  0
    3.2691   -1.2577    0.0092 C   0  0  0  0  0  0  0  0  0  0  0  0
    4.7787   -1.2084   -0.0146 C   0  0  0  0  0  0  0  0  0  0  0  0
    5.2405    0.2634   -0.0230 C   0  0  0  0  0  0  0  0  0  0  0  0
    4.4636    1.1214    1.0376 C   0  0  0  0  0  0  0  0  0  0  0  0
    3.3288    1.1655   -0.0525 C   0  0  0  0  0  0  0  0  0  0  0  0
    4.5260    1.1761   -1.1147 C   0  0  0  0  0  0  0  0  0  0  0  0
    4.2713    0.5779   -2.5034 C   0  0  0  0  0  0  0  0  0  0  0  0
    5.1985    2.5425   -1.3516 C   0  0  0  0  0  0  0  0  0  0  0  0
    0.6183   -1.0868   -0.0023 H   0  0  0  0  0  0  0  0  0  0  0  0
    0.6801    0.4260   -0.9171 H   0  0  0  0  0  0  0  0  0  0  0  0
    0.6821    0.4556    0.8615 H   0  0  0  0  0  0  0  0  0  0  0  0
    2.7901   -2.2311    0.0348 H   0  0  0  0  0  0  0  0  0  0  0  0
    5.1470   -1.7228   -0.9088 H   0  0  0  0  0  0  0  0  0  0  0  0
    5.1772   -1.7302    0.8618 H   0  0  0  0  0  0  0  0  0  0  0  0
    6.3308    0.3463    0.0263 H   0  0  0  0  0  0  0  0  0  0  0  0
    4.9147    2.0887    1.2857 H   0  0  0  0  0  0  0  0  0  0  0  0
    4.2248    0.6406    1.9926 H   0  0  0  0  0  0  0  0  0  0  0  0
    2.6972    2.0592   -0.0406 H   0  0  0  0  0  0  0  0  0  0  0  0
    3.7925   -0.4024   -2.4901 H   0  0  0  0  0  0  0  0  0  0  0  0
    5.2172    0.4686   -3.0468 H   0  0  0  0  0  0  0  0  0  0  0  0
    3.6275    1.2443   -3.0891 H   0  0  0  0  0  0  0  0  0  0  0  0
    5.4428    3.0852   -0.4366 H   0  0  0  0  0  0  0  0  0  0  0  0
    4.5424    3.1874   -1.9464 H   0  0  0  0  0  0  0  0  0  0  0  0
    6.1341    2.4094   -1.9071 H   0  0  0  0  0  0  0  0  0  0  0  0
  1  2  1  0  0  0  0
  1 11  1  0  0  0  0
  1 12  1  0  0  0  0
  1 13  1  0  0  0  0
  2  3  2  0  0  0  0
  2  7  1  0  0  0  0
  3  4  1  0  0  0  0
  3 14  1  0  0  0  0
  4  5  1  0  0  0  0
  4 15  1  0  0  0  0
  4 16  1  0  0  0  0
  5  6  1  0  0  0  0
  5  8  1  0  0  0  0
  5 17  1  0  0  0  0
  6  7  1  0  0  0  0
  6 18  1  0  0  0  0
  6 19  1  0  0  0  0
  7  8  1  0  0  0  0
  7 20  1  0  0  0  0
  8  9  1  0  0  0  0
  8 10  1  0  0  0  0
  9 21  1  0  0  0  0
  9 22  1  0  0  0  0
  9 23  1  0  0  0  0
 10 24  1  0  0  0  0
 10 25  1  0  0  0  0
 10 26  1  0  0  0  0
M  END
$$$$
