
 OpenBabel06272214203D

 39 40  0  0  1  0  0  0  0  0999 V2000
    1.0169    0.1158    0.1420 C   0  0  0  0  0  0  0  0  0  0  0  0
    2.5206    0.1841    0.1338 C   0  0  0  0  0  0  0  0  0  0  0  0
    3.2664   -0.8513    0.5850 C   0  0  0  0  0  0  0  0  0  0  0  0
    4.7547   -0.8897    0.4366 C   0  0  0  0  0  0  0  0  0  0  0  0
    5.2187   -1.5119   -0.9068 C   0  0  0  0  0  0  0  0  0  0  0  0
    5.2014   -0.8290   -2.3358 C   0  0  0  0  0  0  0  0  0  0  0  0
    6.3852   -0.7395   -2.9424 C   0  0  0  0  0  0  0  0  0  0  0  0
    3.9410   -0.8713   -3.2342 C   0  0  1  0  0  0  0  0  0  0  0  0
    3.4821    0.0661   -4.4998 C   0  0  0  0  0  0  0  0  0  0  0  0
    1.9513   -0.2568   -4.0009 C   0  0  0  0  0  0  0  0  0  0  0  0
    2.7148   -0.2228   -2.6086 C   0  0  2  0  0  0  0  0  0  0  0  0
    2.9738    1.2466   -2.0926 C   0  0  0  0  0  0  0  0  0  0  0  0
    3.2004    1.3096   -0.6019 C   0  0  0  0  0  0  0  0  0  0  0  0
    1.4349   -1.3779   -4.9269 C   0  0  0  0  0  0  0  0  0  0  0  0
    0.6114    0.3176   -3.4826 C   0  0  0  0  0  0  0  0  0  0  0  0
    0.6446   -0.7891    0.6333 H   0  0  0  0  0  0  0  0  0  0  0  0
    0.6086    0.0692   -0.8679 H   0  0  0  0  0  0  0  0  0  0  0  0
    0.5858    0.9937    0.6231 H   0  0  0  0  0  0  0  0  0  0  0  0
    2.7784   -1.7305    0.9925 H   0  0  0  0  0  0  0  0  0  0  0  0
    5.1198   -1.5014    1.2770 H   0  0  0  0  0  0  0  0  0  0  0  0
    5.2262    0.0800    0.6291 H   0  0  0  0  0  0  0  0  0  0  0  0
    4.7026   -2.4730   -1.0150 H   0  0  0  0  0  0  0  0  0  0  0  0
    6.2646   -1.7895   -0.6917 H   0  0  0  0  0  0  0  0  0  0  0  0
    7.3245   -0.8649   -2.3945 H   0  0  0  0  0  0  0  0  0  0  0  0
    6.4622   -0.7094   -4.0260 H   0  0  0  0  0  0  0  0  0  0  0  0
    3.7753   -1.9378   -3.4433 H   0  0  0  0  0  0  0  0  0  0  0  0
    3.7302   -0.3133   -5.5003 H   0  0  0  0  0  0  0  0  0  0  0  0
    3.6749    1.1460   -4.5524 H   0  0  0  0  0  0  0  0  0  0  0  0
    2.2443   -0.9275   -1.9246 H   0  0  0  0  0  0  0  0  0  0  0  0
    2.1738    1.9510   -2.3284 H   0  0  0  0  0  0  0  0  0  0  0  0
    3.8356    1.7125   -2.5956 H   0  0  0  0  0  0  0  0  0  0  0  0
    2.9082    2.2796   -0.1915 H   0  0  0  0  0  0  0  0  0  0  0  0
    4.2873    1.3021   -0.4992 H   0  0  0  0  0  0  0  0  0  0  0  0
    2.1775   -1.8266   -5.5879 H   0  0  0  0  0  0  0  0  0  0  0  0
    0.6748   -0.9443   -5.6001 H   0  0  0  0  0  0  0  0  0  0  0  0
    0.9340   -2.1647   -4.3565 H   0  0  0  0  0  0  0  0  0  0  0  0
    0.6367    1.0997   -2.7306 H   0  0  0  0  0  0  0  0  0  0  0  0
    0.0876   -0.5118   -2.9723 H   0  0  0  0  0  0  0  0  0  0  0  0
   -0.0439    0.6794   -4.2717 H   0  0  0  0  0  0  0  0  0  0  0  0
  1  2  1  0  0  0  0
  1 16  1  0  0  0  0
  1 17  1  0  0  0  0
  1 18  1  0  0  0  0
  2  3  2  0  0  0  0
  2 13  1  0  0  0  0
  3  4  1  0  0  0  0
  3 19  1  0  0  0  0
  4  5  1  0  0  0  0
  4 20  1  0  0  0  0
  4 21  1  0  0  0  0
  5  6  1  0  0  0  0
  5 22  1  0  0  0  0
  5 23  1  0  0  0  0
  6  8  1  0  0  0  0
  6  7  2  0  0  0  0
  7 24  1  0  0  0  0
  7 25  1  0  0  0  0
  8  9  1  0  0  0  0
  8 11  1  0  0  0  0
  8 26  1  1  0  0  0
  9 10  1  0  0  0  0
  9 27  1  0  0  0  0
  9 28  1  0  0  0  0
 10 11  1  0  0  0  0
 10 14  1  0  0  0  0
 10 15  1  0  0  0  0
 11 12  1  0  0  0  0
 11 29  1  1  0  0  0
 12 13  1  0  0  0  0
 12 30  1  0  0  0  0
 12 31  1  0  0  0  0
 13 32  1  0  0  0  0
 13 33  1  0  0  0  0
 14 34  1  0  0  0  0
 14 35  1  0  0  0  0
 14 36  1  0  0  0  0
 15 37  1  0  0  0  0
 15 38  1  0  0  0  0
 15 39  1  0  0  0  0
M  END
$$$$
