
 OpenBabel06272214203D

 31 30  0  0  0  0  0  0  0  0999 V2000
    0.9051   -0.0066    0.0592 C   0  0  0  0  0  0  0  0  0  0  0  0
    2.4377   -0.0479    0.0142 C   0  0  0  0  0  0  0  0  0  0  0  0
    2.9407   -1.0219   -1.0639 C   0  0  0  0  0  0  0  0  0  0  0  0
    2.4627   -2.4363   -0.8058 C   0  0  0  0  0  0  0  0  0  0  0  0
    2.9578   -3.3952   -1.8358 C   0  0  0  0  0  0  0  0  0  0  0  0
    2.6305   -4.7024   -1.8070 C   0  0  0  0  0  0  0  0  0  0  0  0
    1.7648   -5.2980   -0.7293 C   0  0  0  0  0  0  0  0  0  0  0  0
    3.1200   -5.6365   -2.8704 C   0  0  0  0  0  0  0  0  0  0  0  0
    2.9875    1.3603   -0.2445 C   0  0  0  0  0  0  0  0  0  0  0  0
    4.5121    1.4100   -0.2374 C   0  0  0  0  0  0  0  0  0  0  0  0
    4.9467    2.7406   -0.4690 O   0  0  0  0  0  0  0  0  0  0  0  0
    0.4787   -0.9799    0.3216 H   0  0  0  0  0  0  0  0  0  0  0  0
    0.4945    0.2901   -0.9118 H   0  0  0  0  0  0  0  0  0  0  0  0
    0.5521    0.6995    0.8161 H   0  0  0  0  0  0  0  0  0  0  0  0
    2.7960   -0.3890    0.9951 H   0  0  0  0  0  0  0  0  0  0  0  0
    4.0356   -1.0483   -1.0772 H   0  0  0  0  0  0  0  0  0  0  0  0
    2.6165   -0.6827   -2.0559 H   0  0  0  0  0  0  0  0  0  0  0  0
    1.3697   -2.4653   -0.8235 H   0  0  0  0  0  0  0  0  0  0  0  0
    2.8129   -2.7469    0.1865 H   0  0  0  0  0  0  0  0  0  0  0  0
    3.5812   -3.0081   -2.6379 H   0  0  0  0  0  0  0  0  0  0  0  0
    1.4338   -4.5674    0.0162 H   0  0  0  0  0  0  0  0  0  0  0  0
    2.3155   -6.0695   -0.1845 H   0  0  0  0  0  0  0  0  0  0  0  0
    0.8596   -5.7308   -1.1638 H   0  0  0  0  0  0  0  0  0  0  0  0
    3.7349   -5.1214   -3.6171 H   0  0  0  0  0  0  0  0  0  0  0  0
    2.2732   -6.0895   -3.3949 H   0  0  0  0  0  0  0  0  0  0  0  0
    3.7303   -6.4278   -2.4257 H   0  0  0  0  0  0  0  0  0  0  0  0
    2.6050    2.0546    0.5145 H   0  0  0  0  0  0  0  0  0  0  0  0
    2.6135    1.7384   -1.2050 H   0  0  0  0  0  0  0  0  0  0  0  0
    4.9511    0.7876   -1.0213 H   0  0  0  0  0  0  0  0  0  0  0  0
    4.9050    1.0727    0.7268 H   0  0  0  0  0  0  0  0  0  0  0  0
    4.6411    2.9847   -1.3598 H   0  0  0  0  0  0  0  0  0  0  0  0
  1  2  1  0  0  0  0
  1 12  1  0  0  0  0
  1 13  1  0  0  0  0
  1 14  1  0  0  0  0
  2  3  1  0  0  0  0
  2  9  1  0  0  0  0
  2 15  1  0  0  0  0
  3  4  1  0  0  0  0
  3 16  1  0  0  0  0
  3 17  1  0  0  0  0
  4  5  1  0  0  0  0
  4 18  1  0  0  0  0
  4 19  1  0  0  0  0
  5  6  2  0  0  0  0
  5 20  1  0  0  0  0
  6  7  1  0  0  0  0
  6  8  1  0  0  0  0
  7 21  1  0  0  0  0
  7 22  1  0  0  0  0
  7 23  1  0  0  0  0
  8 24  1  0  0  0  0
  8 25  1  0  0  0  0
  8 26  1  0  0  0  0
  9 10  1  0  0  0  0
  9 27  1  0  0  0  0
  9 28  1  0  0  0  0
 10 11  1  0  0  0  0
 10 29  1  0  0  0  0
 10 30  1  0  0  0  0
 11 31  1  0  0  0  0
M  END
$$$$
