
 OpenBabel06272214203D

 27 26  0  0  0  0  0  0  0  0999 V2000
    1.0578   -0.0517   -0.0381 C   0  0  0  0  0  0  0  0  0  0  0  0
    2.5651   -0.0051   -0.0867 C   0  0  0  0  0  0  0  0  0  0  0  0
    3.2492    0.7979   -0.9239 C   0  0  0  0  0  0  0  0  0  0  0  0
    2.5505    1.7109   -1.8757 C   0  0  0  0  0  0  0  0  0  0  0  0
    3.4532    2.5635   -2.7645 C   0  0  0  0  0  0  0  0  0  0  0  0
    2.6717    3.4694   -3.7089 C   0  0  0  0  0  0  0  0  0  0  0  0
    1.3232    3.5021   -3.7430 C   0  0  0  0  0  0  0  0  0  0  0  0
    0.5283    4.3619   -4.6394 C   0  0  0  0  0  0  0  0  0  0  0  0
   -0.6985    4.3349   -4.6112 O   0  0  0  0  0  0  0  0  0  0  0  0
    3.5061    4.3346   -4.6109 C   0  0  0  0  0  0  0  0  0  0  0  0
    3.3015   -0.9094    0.8560 C   0  0  0  0  0  0  0  0  0  0  0  0
    0.5793    0.6300   -0.7488 H   0  0  0  0  0  0  0  0  0  0  0  0
    0.6987    0.2329    0.9549 H   0  0  0  0  0  0  0  0  0  0  0  0
    0.6987   -1.0557   -0.2812 H   0  0  0  0  0  0  0  0  0  0  0  0
    4.3365    0.7943   -0.9201 H   0  0  0  0  0  0  0  0  0  0  0  0
    1.9143    2.3840   -1.2850 H   0  0  0  0  0  0  0  0  0  0  0  0
    1.9143    1.0927   -2.5236 H   0  0  0  0  0  0  0  0  0  0  0  0
    4.1041    1.9031   -3.3522 H   0  0  0  0  0  0  0  0  0  0  0  0
    4.1041    3.1782   -2.1292 H   0  0  0  0  0  0  0  0  0  0  0  0
    0.6977    2.8881   -3.1030 H   0  0  0  0  0  0  0  0  0  0  0  0
    1.0838    5.0176   -5.3229 H   0  0  0  0  0  0  0  0  0  0  0  0
    4.5775    4.1823   -4.4521 H   0  0  0  0  0  0  0  0  0  0  0  0
    3.2909    5.3918   -4.4234 H   0  0  0  0  0  0  0  0  0  0  0  0
    3.2909    4.1033   -5.6594 H   0  0  0  0  0  0  0  0  0  0  0  0
    2.6102   -1.4964    1.4679 H   0  0  0  0  0  0  0  0  0  0  0  0
    3.9329   -0.3237    1.5323 H   0  0  0  0  0  0  0  0  0  0  0  0
    3.9329   -1.6095    0.2990 H   0  0  0  0  0  0  0  0  0  0  0  0
  1  2  1  0  0  0  0
  1 12  1  0  0  0  0
  1 13  1  0  0  0  0
  1 14  1  0  0  0  0
  2  3  2  0  0  0  0
  2 11  1  0  0  0  0
  3  4  1  0  0  0  0
  3 15  1  0  0  0  0
  4  5  1  0  0  0  0
  4 16  1  0  0  0  0
  4 17  1  0  0  0  0
  5  6  1  0  0  0  0
  5 18  1  0  0  0  0
  5 19  1  0  0  0  0
  6  7  2  0  0  0  0
  6 10  1  0  0  0  0
  7  8  1  0  0  0  0
  7 20  1  0  0  0  0
  8  9  2  0  0  0  0
  8 21  1  0  0  0  0
 10 22  1  0  0  0  0
 10 23  1  0  0  0  0
 10 24  1  0  0  0  0
 11 25  1  0  0  0  0
 11 26  1  0  0  0  0
 11 27  1  0  0  0  0
M  END
$$$$
