
 OpenBabel06272214203D

 11 10  0  0  0  0  0  0  0  0999 V2000
    1.1237   -0.1793    0.0708 C   0  0  0  0  0  0  0  0  0  0  0  0
    2.9327   -0.1004    0.0243 S   0  0  0  0  0  0  0  0  0  0  0  0
    3.5157   -1.8014    1.0263 S   0  0  0  0  0  0  0  0  0  0  0  0
    5.5713   -1.7081    0.9713 S   0  0  0  0  0  0  0  0  0  0  0  0
    6.0881   -3.2039    1.8525 C   0  0  0  0  0  0  0  0  0  0  0  0
    0.7266    0.6986   -0.4463 H   0  0  0  0  0  0  0  0  0  0  0  0
    0.7539   -0.1597    1.1001 H   0  0  0  0  0  0  0  0  0  0  0  0
    0.7539   -1.0701   -0.4453 H   0  0  0  0  0  0  0  0  0  0  0  0
    7.1810   -3.2338    1.8701 H   0  0  0  0  0  0  0  0  0  0  0  0
    5.7347   -4.1046    1.3422 H   0  0  0  0  0  0  0  0  0  0  0  0
    5.7347   -3.1943    2.8877 H   0  0  0  0  0  0  0  0  0  0  0  0
  1  2  1  0  0  0  0
  1  6  1  0  0  0  0
  1  7  1  0  0  0  0
  1  8  1  0  0  0  0
  2  3  1  0  0  0  0
  3  4  1  0  0  0  0
  4  5  1  0  0  0  0
  5  9  1  0  0  0  0
  5 10  1  0  0  0  0
  5 11  1  0  0  0  0
M  END
$$$$
