
 OpenBabel06272214203D

 39 38  0  0  0  0  0  0  0  0999 V2000
    0.9844    0.1544   -0.0465 C   0  0  0  0  0  0  0  0  0  0  0  0
    2.4918    0.0915   -0.0573 C   0  0  0  0  0  0  0  0  0  0  0  0
    3.1850   -1.0458   -0.2519 C   0  0  0  0  0  0  0  0  0  0  0  0
    2.4985   -2.3468   -0.4745 C   0  0  0  0  0  0  0  0  0  0  0  0
    3.4115   -3.5518   -0.6807 C   0  0  0  0  0  0  0  0  0  0  0  0
    2.6259   -4.8269   -0.8989 C   0  0  0  0  0  0  0  0  0  0  0  0
    1.2767   -4.8598   -0.9046 C   0  0  0  0  0  0  0  0  0  0  0  0
    0.4995   -6.1038   -1.1174 C   0  0  0  0  0  0  0  0  0  0  0  0
   -1.0237   -5.9266   -1.0871 C   0  0  0  0  0  0  0  0  0  0  0  0
   -1.7479   -7.2490   -1.3134 C   0  0  0  0  0  0  0  0  0  0  0  0
   -1.0791   -8.4037   -1.5110 C   0  0  0  0  0  0  0  0  0  0  0  0
   -3.2040   -7.1983   -1.3047 C   0  0  0  0  0  0  0  0  0  0  0  0
   -4.0088   -8.2610   -1.4866 C   0  0  0  0  0  0  0  0  0  0  0  0
    3.4375   -6.0789   -1.1132 C   0  0  0  0  0  0  0  0  0  0  0  0
    3.2261    1.3776    0.1628 C   0  0  0  0  0  0  0  0  0  0  0  0
    0.5049   -0.8160   -0.2125 H   0  0  0  0  0  0  0  0  0  0  0  0
    0.6254    0.8185   -0.8380 H   0  0  0  0  0  0  0  0  0  0  0  0
    0.6254    0.5175    0.9209 H   0  0  0  0  0  0  0  0  0  0  0  0
    4.2717   -1.0386   -0.2506 H   0  0  0  0  0  0  0  0  0  0  0  0
    1.8621   -2.2378   -1.3641 H   0  0  0  0  0  0  0  0  0  0  0  0
    1.8621   -2.5398    0.4007 H   0  0  0  0  0  0  0  0  0  0  0  0
    4.0584   -3.6746    0.1965 H   0  0  0  0  0  0  0  0  0  0  0  0
    4.0584   -3.3759   -1.5488 H   0  0  0  0  0  0  0  0  0  0  0  0
    0.6749   -3.9700   -0.7523 H   0  0  0  0  0  0  0  0  0  0  0  0
    0.7888   -6.8084   -0.3279 H   0  0  0  0  0  0  0  0  0  0  0  0
    0.7888   -6.5058   -2.0964 H   0  0  0  0  0  0  0  0  0  0  0  0
   -1.3186   -5.1991   -1.8571 H   0  0  0  0  0  0  0  0  0  0  0  0
   -1.3186   -5.4965   -0.1190 H   0  0  0  0  0  0  0  0  0  0  0  0
    0.0018   -8.4671   -1.5219 H   0  0  0  0  0  0  0  0  0  0  0  0
   -1.5628   -9.3547   -1.6737 H   0  0  0  0  0  0  0  0  0  0  0  0
   -3.6688   -6.2277   -1.1386 H   0  0  0  0  0  0  0  0  0  0  0  0
   -3.6226   -9.2580   -1.6572 H   0  0  0  0  0  0  0  0  0  0  0  0
   -5.0858   -8.1667   -1.4704 H   0  0  0  0  0  0  0  0  0  0  0  0
    4.5123   -5.8800   -1.0791 H   0  0  0  0  0  0  0  0  0  0  0  0
    3.2148   -6.5182   -2.0918 H   0  0  0  0  0  0  0  0  0  0  0  0
    3.2148   -6.8186   -0.3362 H   0  0  0  0  0  0  0  0  0  0  0  0
    2.5334    2.2117    0.3056 H   0  0  0  0  0  0  0  0  0  0  0  0
    3.8571    1.6074   -0.7019 H   0  0  0  0  0  0  0  0  0  0  0  0
    3.8571    1.3068    1.0548 H   0  0  0  0  0  0  0  0  0  0  0  0
  1  2  1  0  0  0  0
  1 16  1  0  0  0  0
  1 17  1  0  0  0  0
  1 18  1  0  0  0  0
  2  3  2  0  0  0  0
  2 15  1  0  0  0  0
  3  4  1  0  0  0  0
  3 19  1  0  0  0  0
  4  5  1  0  0  0  0
  4 20  1  0  0  0  0
  4 21  1  0  0  0  0
  5  6  1  0  0  0  0
  5 22  1  0  0  0  0
  5 23  1  0  0  0  0
  6  7  2  0  0  0  0
  6 14  1  0  0  0  0
  7  8  1  0  0  0  0
  7 24  1  0  0  0  0
  8  9  1  0  0  0  0
  8 25  1  0  0  0  0
  8 26  1  0  0  0  0
  9 10  1  0  0  0  0
  9 27  1  0  0  0  0
  9 28  1  0  0  0  0
 10 11  2  0  0  0  0
 10 12  1  0  0  0  0
 11 29  1  0  0  0  0
 11 30  1  0  0  0  0
 12 13  2  0  0  0  0
 12 31  1  0  0  0  0
 13 32  1  0  0  0  0
 13 33  1  0  0  0  0
 14 34  1  0  0  0  0
 14 35  1  0  0  0  0
 14 36  1  0  0  0  0
 15 37  1  0  0  0  0
 15 38  1  0  0  0  0
 15 39  1  0  0  0  0
M  END
$$$$
