
 OpenBabel06272214203D

 20 19  0  0  0  0  0  0  0  0999 V2000
    1.0070    0.0535    0.0619 C   0  0  0  0  0  0  0  0  0  0  0  0
    2.5262    0.0460    0.0566 C   0  0  0  0  0  0  0  0  0  0  0  0
    3.1115   -1.1065   -0.7682 C   0  0  0  0  0  0  0  0  0  0  0  0
    4.6280   -1.0644   -0.7381 C   0  0  0  0  0  0  0  0  0  0  0  0
    5.2838   -0.2221   -0.1353 O   0  0  0  0  0  0  0  0  0  0  0  0
    5.1732   -2.0834   -1.4674 O   0  0  0  0  0  0  0  0  0  0  0  0
    6.6132   -2.0801   -1.4650 C   0  0  0  0  0  0  0  0  0  0  0  0
    7.1390   -3.2389   -2.2943 C   0  0  0  0  0  0  0  0  0  0  0  0
    0.6368    0.8921    0.6621 H   0  0  0  0  0  0  0  0  0  0  0  0
    0.6105   -0.8706    0.4932 H   0  0  0  0  0  0  0  0  0  0  0  0
    0.6105    0.1636   -0.9519 H   0  0  0  0  0  0  0  0  0  0  0  0
    2.8851   -0.0199    1.0912 H   0  0  0  0  0  0  0  0  0  0  0  0
    2.8851    1.0040   -0.3396 H   0  0  0  0  0  0  0  0  0  0  0  0
    2.7717   -1.0247   -1.8067 H   0  0  0  0  0  0  0  0  0  0  0  0
    2.7717   -2.0630   -0.3557 H   0  0  0  0  0  0  0  0  0  0  0  0
    6.9796   -2.1800   -0.4364 H   0  0  0  0  0  0  0  0  0  0  0  0
    6.9796   -1.1388   -1.8914 H   0  0  0  0  0  0  0  0  0  0  0  0
    6.7879   -4.1957   -1.8953 H   0  0  0  0  0  0  0  0  0  0  0  0
    8.2345   -3.2462   -2.2995 H   0  0  0  0  0  0  0  0  0  0  0  0
    6.7879   -3.1699   -3.3286 H   0  0  0  0  0  0  0  0  0  0  0  0
  1  2  1  0  0  0  0
  1  9  1  0  0  0  0
  1 10  1  0  0  0  0
  1 11  1  0  0  0  0
  2  3  1  0  0  0  0
  2 12  1  0  0  0  0
  2 13  1  0  0  0  0
  3  4  1  0  0  0  0
  3 14  1  0  0  0  0
  3 15  1  0  0  0  0
  4  5  2  0  0  0  0
  4  6  1  0  0  0  0
  6  7  1  0  0  0  0
  7  8  1  0  0  0  0
  7 16  1  0  0  0  0
  7 17  1  0  0  0  0
  8 18  1  0  0  0  0
  8 19  1  0  0  0  0
  8 20  1  0  0  0  0
M  END
$$$$
