
 OpenBabel06272214203D

 21 20  0  0  0  0  0  0  0  0999 V2000
    1.0287   -0.1018    0.0564 C   0  0  0  0  0  0  0  0  0  0  0  0
    2.5501   -0.1289    0.0456 C   0  0  0  0  0  0  0  0  0  0  0  0
    3.0185   -1.3984   -0.4568 O   0  0  0  0  0  0  0  0  0  0  0  0
    4.3761   -1.5178   -0.5040 C   0  0  0  0  0  0  0  0  0  0  0  0
    5.1588   -0.6395   -0.1564 O   0  0  0  0  0  0  0  0  0  0  0  0
    4.8413   -2.8467   -1.0300 C   0  0  0  0  0  0  0  0  0  0  0  0
    4.0011   -3.8294   -1.4189 C   0  0  0  0  0  0  0  0  0  0  0  0
    4.4407   -5.1673   -1.9484 C   0  0  0  0  0  0  0  0  0  0  0  0
    6.3333   -3.0495   -1.1102 C   0  0  0  0  0  0  0  0  0  0  0  0
    0.6562    0.8566    0.4357 H   0  0  0  0  0  0  0  0  0  0  0  0
    0.6275   -0.9011    0.6875 H   0  0  0  0  0  0  0  0  0  0  0  0
    0.6275   -0.2527   -0.9509 H   0  0  0  0  0  0  0  0  0  0  0  0
    2.9165    0.0239    1.0678 H   0  0  0  0  0  0  0  0  0  0  0  0
    2.9165    0.6821   -0.5951 H   0  0  0  0  0  0  0  0  0  0  0  0
    2.9243   -3.6847   -1.3616 H   0  0  0  0  0  0  0  0  0  0  0  0
    5.5279   -5.2834   -1.9943 H   0  0  0  0  0  0  0  0  0  0  0  0
    4.0613   -5.3151   -2.9635 H   0  0  0  0  0  0  0  0  0  0  0  0
    4.0613   -5.9698   -1.3093 H   0  0  0  0  0  0  0  0  0  0  0  0
    6.9162   -2.1915   -0.7707 H   0  0  0  0  0  0  0  0  0  0  0  0
    6.6323   -3.2523   -2.1461 H   0  0  0  0  0  0  0  0  0  0  0  0
    6.6323   -3.9063   -0.4937 H   0  0  0  0  0  0  0  0  0  0  0  0
  1  2  1  0  0  0  0
  1 10  1  0  0  0  0
  1 11  1  0  0  0  0
  1 12  1  0  0  0  0
  2  3  1  0  0  0  0
  2 13  1  0  0  0  0
  2 14  1  0  0  0  0
  3  4  1  0  0  0  0
  4  5  2  0  0  0  0
  4  6  1  0  0  0  0
  6  7  2  0  0  0  0
  6  9  1  0  0  0  0
  7  8  1  0  0  0  0
  7 15  1  0  0  0  0
  8 16  1  0  0  0  0
  8 17  1  0  0  0  0
  8 18  1  0  0  0  0
  9 19  1  0  0  0  0
  9 20  1  0  0  0  0
  9 21  1  0  0  0  0
M  END
$$$$
