
 OpenBabel06272214203D

 17 17  0  0  0  0  0  0  0  0999 V2000
    1.0815   -0.1055    0.0540 C   0  0  0  0  0  0  0  0  0  0  0  0
    2.5020   -0.0787    0.0702 O   0  0  0  0  0  0  0  0  0  0  0  0
    3.1039    1.1532    0.0640 C   0  0  0  0  0  0  0  0  0  0  0  0
    4.5047    1.0868    0.0466 C   0  0  0  0  0  0  0  0  0  0  0  0
    5.2778    2.2499    0.0259 C   0  0  0  0  0  0  0  0  0  0  0  0
    4.6563    3.4941    0.0240 C   0  0  0  0  0  0  0  0  0  0  0  0
    3.2637    3.5777    0.0511 C   0  0  0  0  0  0  0  0  0  0  0  0
    2.4908    2.4120    0.0732 C   0  0  0  0  0  0  0  0  0  0  0  0
    1.1288    2.5450    0.1060 O   0  0  0  0  0  0  0  0  0  0  0  0
    0.7608   -1.1509    0.0410 H   0  0  0  0  0  0  0  0  0  0  0  0
    0.6875    0.3628   -0.8545 H   0  0  0  0  0  0  0  0  0  0  0  0
    0.6708    0.3444    0.9639 H   0  0  0  0  0  0  0  0  0  0  0  0
    4.9973    0.1174    0.0476 H   0  0  0  0  0  0  0  0  0  0  0  0
    6.3628    2.1804    0.0099 H   0  0  0  0  0  0  0  0  0  0  0  0
    5.2542    4.4015    0.0026 H   0  0  0  0  0  0  0  0  0  0  0  0
    2.7970    4.5570    0.0533 H   0  0  0  0  0  0  0  0  0  0  0  0
    0.8923    3.4841    0.1329 H   0  0  0  0  0  0  0  0  0  0  0  0
  1  2  1  0  0  0  0
  1 10  1  0  0  0  0
  1 11  1  0  0  0  0
  1 12  1  0  0  0  0
  2  3  1  0  0  0  0
  3  4  2  0  0  0  0
  3  8  1  0  0  0  0
  4  5  1  0  0  0  0
  4 13  1  0  0  0  0
  5  6  2  0  0  0  0
  5 14  1  0  0  0  0
  6  7  1  0  0  0  0
  6 15  1  0  0  0  0
  7  8  2  0  0  0  0
  7 16  1  0  0  0  0
  8  9  1  0  0  0  0
  9 17  1  0  0  0  0
M  END
$$$$
