
 OpenBabel06272214203D

 22 21  0  0  0  0  0  0  0  0999 V2000
    1.0593    0.0686   -0.0300 C   0  0  0  0  0  0  0  0  0  0  0  0
    2.5764    0.0649   -0.0210 C   0  0  0  0  0  0  0  0  0  0  0  0
    3.1027   -0.4846    1.2999 C   0  0  0  0  0  0  0  0  0  0  0  0
    4.6258   -0.4906    1.3141 C   0  0  0  0  0  0  0  0  0  0  0  0
    5.1511   -1.0403    2.6355 C   0  0  0  0  0  0  0  0  0  0  0  0
    6.6732   -1.0437    2.6437 C   0  0  0  0  0  0  0  0  0  0  0  0
    7.2056   -1.5838    3.9420 C   0  0  0  0  0  0  0  0  0  0  0  0
    8.4080   -1.6809    4.1754 O   0  0  0  0  0  0  0  0  0  0  0  0
    0.6857    0.4633   -0.9788 H   0  0  0  0  0  0  0  0  0  0  0  0
    0.6688    0.6922    0.7806 H   0  0  0  0  0  0  0  0  0  0  0  0
    0.6688   -0.9459    0.0991 H   0  0  0  0  0  0  0  0  0  0  0  0
    2.9463    1.0853   -0.1754 H   0  0  0  0  0  0  0  0  0  0  0  0
    2.9463   -0.5450   -0.8536 H   0  0  0  0  0  0  0  0  0  0  0  0
    2.7279   -1.5042    1.4528 H   0  0  0  0  0  0  0  0  0  0  0  0
    2.7279    0.1257    2.1308 H   0  0  0  0  0  0  0  0  0  0  0  0
    5.0006    0.5290    1.1618 H   0  0  0  0  0  0  0  0  0  0  0  0
    5.0006   -1.1012    0.4836 H   0  0  0  0  0  0  0  0  0  0  0  0
    4.7733   -2.0586    2.7923 H   0  0  0  0  0  0  0  0  0  0  0  0
    4.7733   -0.4337    3.4683 H   0  0  0  0  0  0  0  0  0  0  0  0
    7.0519   -0.0243    2.5158 H   0  0  0  0  0  0  0  0  0  0  0  0
    7.0519   -1.6716    1.8305 H   0  0  0  0  0  0  0  0  0  0  0  0
    6.4612   -1.8963    4.6933 H   0  0  0  0  0  0  0  0  0  0  0  0
  1  2  1  0  0  0  0
  1  9  1  0  0  0  0
  1 10  1  0  0  0  0
  1 11  1  0  0  0  0
  2  3  1  0  0  0  0
  2 12  1  0  0  0  0
  2 13  1  0  0  0  0
  3  4  1  0  0  0  0
  3 14  1  0  0  0  0
  3 15  1  0  0  0  0
  4  5  1  0  0  0  0
  4 16  1  0  0  0  0
  4 17  1  0  0  0  0
  5  6  1  0  0  0  0
  5 18  1  0  0  0  0
  5 19  1  0  0  0  0
  6  7  1  0  0  0  0
  6 20  1  0  0  0  0
  6 21  1  0  0  0  0
  7  8  2  0  0  0  0
  7 22  1  0  0  0  0
M  END
$$$$
