
 OpenBabel06272214203D

 23 22  0  0  0  0  0  0  0  0999 V2000
    0.9332    0.0299   -0.0872 C   0  0  0  0  0  0  0  0  0  0  0  0
    2.4509    0.0231   -0.0844 C   0  0  0  0  0  0  0  0  0  0  0  0
    2.9847   -1.2981    0.4572 C   0  0  0  0  0  0  0  0  0  0  0  0
    4.5119   -1.3069    0.4608 C   0  0  0  0  0  0  0  0  0  0  0  0
    5.0350   -2.6307    1.0035 C   0  0  0  0  0  0  0  0  0  0  0  0
    6.5636   -2.6879    1.0269 C   0  0  0  0  0  0  0  0  0  0  0  0
    7.0193   -4.0226    1.5741 C   0  0  0  0  0  0  0  0  0  0  0  0
    6.2677   -4.9162    1.9405 O   0  0  0  0  0  0  0  0  0  0  0  0
    8.3615   -4.1610    1.6309 O   0  0  0  0  0  0  0  0  0  0  0  0
    0.5585    0.9805   -0.4769 H   0  0  0  0  0  0  0  0  0  0  0  0
    0.5426   -0.1043    0.9266 H   0  0  0  0  0  0  0  0  0  0  0  0
    0.5426   -0.7773   -0.7151 H   0  0  0  0  0  0  0  0  0  0  0  0
    2.8188    0.8534    0.5296 H   0  0  0  0  0  0  0  0  0  0  0  0
    2.8188    0.1835   -1.1045 H   0  0  0  0  0  0  0  0  0  0  0  0
    2.6098   -2.1273   -0.1561 H   0  0  0  0  0  0  0  0  0  0  0  0
    2.6098   -1.4582    1.4761 H   0  0  0  0  0  0  0  0  0  0  0  0
    4.8834   -0.4797    1.0770 H   0  0  0  0  0  0  0  0  0  0  0  0
    4.8834   -1.1503   -0.5587 H   0  0  0  0  0  0  0  0  0  0  0  0
    4.6464   -3.4540    0.3901 H   0  0  0  0  0  0  0  0  0  0  0  0
    4.6464   -2.7865    2.0183 H   0  0  0  0  0  0  0  0  0  0  0  0
    6.9544   -1.8859    1.6631 H   0  0  0  0  0  0  0  0  0  0  0  0
    6.9544   -2.5632    0.0109 H   0  0  0  0  0  0  0  0  0  0  0  0
    8.8751   -3.3947    1.3167 H   0  0  0  0  0  0  0  0  0  0  0  0
  1  2  1  0  0  0  0
  1 10  1  0  0  0  0
  1 11  1  0  0  0  0
  1 12  1  0  0  0  0
  2  3  1  0  0  0  0
  2 13  1  0  0  0  0
  2 14  1  0  0  0  0
  3  4  1  0  0  0  0
  3 15  1  0  0  0  0
  3 16  1  0  0  0  0
  4  5  1  0  0  0  0
  4 17  1  0  0  0  0
  4 18  1  0  0  0  0
  5  6  1  0  0  0  0
  5 19  1  0  0  0  0
  5 20  1  0  0  0  0
  6  7  1  0  0  0  0
  6 21  1  0  0  0  0
  6 22  1  0  0  0  0
  7  8  2  0  0  0  0
  7  9  1  0  0  0  0
  9 23  1  0  0  0  0
M  END
$$$$
