
 OpenBabel06272214203D

 33 32  0  0  0  0  0  0  0  0999 V2000
    1.0635   -0.0705    0.0334 C   0  0  0  0  0  0  0  0  0  0  0  0
    2.5825   -0.0590    0.0287 C   0  0  0  0  0  0  0  0  0  0  0  0
    3.1138    1.2666   -0.5141 C   0  0  0  0  0  0  0  0  0  0  0  0
    4.6421    1.2894   -0.5234 C   0  0  0  0  0  0  0  0  0  0  0  0
    5.1770    2.6178   -1.0674 C   0  0  0  0  0  0  0  0  0  0  0  0
    6.7067    2.6505   -1.0808 C   0  0  0  0  0  0  0  0  0  0  0  0
    7.1701    3.9166   -1.5992 O   0  0  0  0  0  0  0  0  0  0  0  0
    8.5278    4.0364   -1.6483 C   0  0  0  0  0  0  0  0  0  0  0  0
    9.3110    3.1628   -1.2906 O   0  0  0  0  0  0  0  0  0  0  0  0
    8.9925    5.3586   -2.1897 C   0  0  0  0  0  0  0  0  0  0  0  0
    8.1519    6.3362   -2.5901 C   0  0  0  0  0  0  0  0  0  0  0  0
    8.5912    7.6676   -3.1353 C   0  0  0  0  0  0  0  0  0  0  0  0
   10.4844    5.5600   -2.2722 C   0  0  0  0  0  0  0  0  0  0  0  0
    0.6900   -1.0220    0.4231 H   0  0  0  0  0  0  0  0  0  0  0  0
    0.6710    0.0628   -0.9798 H   0  0  0  0  0  0  0  0  0  0  0  0
    0.6710    0.7352    0.6622 H   0  0  0  0  0  0  0  0  0  0  0  0
    2.9501   -0.8898   -0.5850 H   0  0  0  0  0  0  0  0  0  0  0  0
    2.9501   -0.2207    1.0489 H   0  0  0  0  0  0  0  0  0  0  0  0
    2.7356    2.0919    0.1017 H   0  0  0  0  0  0  0  0  0  0  0  0
    2.7356    1.4230   -1.5318 H   0  0  0  0  0  0  0  0  0  0  0  0
    5.0135    0.4593   -1.1370 H   0  0  0  0  0  0  0  0  0  0  0  0
    5.0135    1.1280    0.4961 H   0  0  0  0  0  0  0  0  0  0  0  0
    4.7971    3.4488   -0.4607 H   0  0  0  0  0  0  0  0  0  0  0  0
    4.7971    2.7846   -2.0827 H   0  0  0  0  0  0  0  0  0  0  0  0
    7.0811    1.8368   -1.7141 H   0  0  0  0  0  0  0  0  0  0  0  0
    7.0811    2.5147   -0.0587 H   0  0  0  0  0  0  0  0  0  0  0  0
    7.0751    6.1917   -2.5309 H   0  0  0  0  0  0  0  0  0  0  0  0
    9.6784    7.7831   -3.1826 H   0  0  0  0  0  0  0  0  0  0  0  0
    8.2117    8.4774   -2.5056 H   0  0  0  0  0  0  0  0  0  0  0  0
    8.2117    7.8032   -4.1521 H   0  0  0  0  0  0  0  0  0  0  0  0
   11.0670    4.7058   -1.9224 H   0  0  0  0  0  0  0  0  0  0  0  0
   10.7836    6.4238   -1.6656 H   0  0  0  0  0  0  0  0  0  0  0  0
   10.7836    5.7502   -3.3104 H   0  0  0  0  0  0  0  0  0  0  0  0
  1  2  1  0  0  0  0
  1 14  1  0  0  0  0
  1 15  1  0  0  0  0
  1 16  1  0  0  0  0
  2  3  1  0  0  0  0
  2 17  1  0  0  0  0
  2 18  1  0  0  0  0
  3  4  1  0  0  0  0
  3 19  1  0  0  0  0
  3 20  1  0  0  0  0
  4  5  1  0  0  0  0
  4 21  1  0  0  0  0
  4 22  1  0  0  0  0
  5  6  1  0  0  0  0
  5 23  1  0  0  0  0
  5 24  1  0  0  0  0
  6  7  1  0  0  0  0
  6 25  1  0  0  0  0
  6 26  1  0  0  0  0
  7  8  1  0  0  0  0
  8  9  2  0  0  0  0
  8 10  1  0  0  0  0
 10 11  2  0  0  0  0
 10 13  1  0  0  0  0
 11 12  1  0  0  0  0
 11 27  1  0  0  0  0
 12 28  1  0  0  0  0
 12 29  1  0  0  0  0
 12 30  1  0  0  0  0
 13 31  1  0  0  0  0
 13 32  1  0  0  0  0
 13 33  1  0  0  0  0
M  END
$$$$
