
 OpenBabel06272214203D

 16 17  0  0  0  0  0  0  0  0999 V2000
    2.1840   -0.6771   -0.0134 C   0  0  0  0  0  0  0  0  0  0  0  0
    2.1455    0.7157   -0.0250 C   0  0  0  0  0  0  0  0  0  0  0  0
    0.9284    1.4063   -0.0003 C   0  0  0  0  0  0  0  0  0  0  0  0
   -0.2468    0.6440    0.0088 C   0  0  0  0  0  0  0  0  0  0  0  0
   -0.2358   -0.7509    0.0129 C   0  0  0  0  0  0  0  0  0  0  0  0
    1.0009   -1.4222    0.0169 C   0  0  0  0  0  0  0  0  0  0  0  0
   -1.5893   -1.1835   -0.0055 C   0  0  0  0  0  0  0  0  0  0  0  0
   -2.3865   -0.0635   -0.0350 C   0  0  0  0  0  0  0  0  0  0  0  0
   -1.5680    1.0357    0.0056 N   0  0  0  0  0  0  0  0  0  0  0  0
    3.1401   -1.1940   -0.0348 H   0  0  0  0  0  0  0  0  0  0  0  0
    3.0778    1.2752   -0.0576 H   0  0  0  0  0  0  0  0  0  0  0  0
    0.9055    2.4910   -0.0046 H   0  0  0  0  0  0  0  0  0  0  0  0
    1.0348   -2.5071    0.0253 H   0  0  0  0  0  0  0  0  0  0  0  0
   -1.9345   -2.2088   -0.0202 H   0  0  0  0  0  0  0  0  0  0  0  0
   -3.4619    0.0448   -0.0811 H   0  0  0  0  0  0  0  0  0  0  0  0
   -1.8823    1.9952    0.0060 H   0  0  0  0  0  0  0  0  0  0  0  0
  1  2  2  0  0  0  0
  1  6  1  0  0  0  0
  1 10  1  0  0  0  0
  2  3  1  0  0  0  0
  2 11  1  0  0  0  0
  3  4  2  0  0  0  0
  3 12  1  0  0  0  0
  4  5  1  0  0  0  0
  4  9  1  0  0  0  0
  5  6  2  0  0  0  0
  5  7  1  0  0  0  0
  6 13  1  0  0  0  0
  7  8  2  0  0  0  0
  7 14  1  0  0  0  0
  8  9  1  0  0  0  0
  8 15  1  0  0  0  0
  9 16  1  0  0  0  0
M  END
$$$$
