
 OpenBabel06272214203D

 14 14  0  0  0  0  0  0  0  0999 V2000
    1.3612   -0.2146    0.0138 C   0  0  0  0  0  0  0  0  0  0  0  0
    0.8532    1.0856    0.0048 C   0  0  0  0  0  0  0  0  0  0  0  0
   -0.5267    1.2982    0.0199 C   0  0  0  0  0  0  0  0  0  0  0  0
   -1.3926    0.2020   -0.0309 C   0  0  0  0  0  0  0  0  0  0  0  0
   -0.8864   -1.1006   -0.0167 C   0  0  0  0  0  0  0  0  0  0  0  0
    0.4928   -1.3067    0.0150 C   0  0  0  0  0  0  0  0  0  0  0  0
   -2.8450    0.4301   -0.1634 C   0  0  0  0  0  0  0  0  0  0  0  0
   -3.6447   -0.4955   -0.2684 O   0  0  0  0  0  0  0  0  0  0  0  0
    2.4365   -0.3781    0.0221 H   0  0  0  0  0  0  0  0  0  0  0  0
    1.5352    1.9322   -0.0260 H   0  0  0  0  0  0  0  0  0  0  0  0
   -0.9093    2.3145    0.0573 H   0  0  0  0  0  0  0  0  0  0  0  0
   -1.5625   -1.9527   -0.0406 H   0  0  0  0  0  0  0  0  0  0  0  0
    0.8898   -2.3188    0.0214 H   0  0  0  0  0  0  0  0  0  0  0  0
   -3.1807    1.4791   -0.1932 H   0  0  0  0  0  0  0  0  0  0  0  0
  1  2  2  0  0  0  0
  1  6  1  0  0  0  0
  1  9  1  0  0  0  0
  2  3  1  0  0  0  0
  2 10  1  0  0  0  0
  3  4  2  0  0  0  0
  3 11  1  0  0  0  0
  4  5  1  0  0  0  0
  4  7  1  0  0  0  0
  5  6  2  0  0  0  0
  5 12  1  0  0  0  0
  6 13  1  0  0  0  0
  7  8  2  0  0  0  0
  7 14  1  0  0  0  0
M  END
$$$$
