
 OpenBabel06272214203D

 24 23  0  0  0  0  0  0  0  0999 V2000
    0.9698   -0.0602   -0.0154 C   0  0  0  0  0  0  0  0  0  0  0  0
    2.4659   -0.0671   -0.1062 C   0  0  0  0  0  0  0  0  0  0  0  0
    3.1591   -0.1846   -1.2612 C   0  0  0  0  0  0  0  0  0  0  0  0
    2.4751   -0.3306   -2.5851 C   0  0  0  0  0  0  0  0  0  0  0  0
    4.6563   -0.1447   -1.1852 C   0  0  0  0  0  0  0  0  0  0  0  0
    5.2553    0.0579   -0.1328 O   0  0  0  0  0  0  0  0  0  0  0  0
    5.2591   -0.3571   -2.3922 O   0  0  0  0  0  0  0  0  0  0  0  0
    6.7147   -0.3331   -2.3955 C   0  0  0  0  0  0  0  0  0  0  0  0
    7.2967   -1.4981   -1.5932 C   0  0  0  0  0  0  0  0  0  0  0  0
    7.2274   -0.4496   -3.8361 C   0  0  0  0  0  0  0  0  0  0  0  0
    0.6408    0.0509    1.0218 H   0  0  0  0  0  0  0  0  0  0  0  0
    0.5540   -0.9991   -0.3958 H   0  0  0  0  0  0  0  0  0  0  0  0
    0.5534    0.7780   -0.5844 H   0  0  0  0  0  0  0  0  0  0  0  0
    2.9943    0.0387    0.8417 H   0  0  0  0  0  0  0  0  0  0  0  0
    1.3827   -0.3213   -2.4912 H   0  0  0  0  0  0  0  0  0  0  0  0
    2.7337   -1.2825   -3.0551 H   0  0  0  0  0  0  0  0  0  0  0  0
    2.7319    0.4990   -3.2483 H   0  0  0  0  0  0  0  0  0  0  0  0
    7.0589    0.6270   -1.9892 H   0  0  0  0  0  0  0  0  0  0  0  0
    6.9354   -2.4530   -1.9880 H   0  0  0  0  0  0  0  0  0  0  0  0
    7.0040   -1.4617   -0.5420 H   0  0  0  0  0  0  0  0  0  0  0  0
    8.3913   -1.4926   -1.6255 H   0  0  0  0  0  0  0  0  0  0  0  0
    6.8847   -1.3802   -4.3025 H   0  0  0  0  0  0  0  0  0  0  0  0
    8.3250   -0.4445   -3.8650 H   0  0  0  0  0  0  0  0  0  0  0  0
    6.8682    0.3745   -4.4594 H   0  0  0  0  0  0  0  0  0  0  0  0
  1  2  1  0  0  0  0
  1 11  1  0  0  0  0
  1 12  1  0  0  0  0
  1 13  1  0  0  0  0
  2  3  2  0  0  0  0
  2 14  1  0  0  0  0
  3  4  1  0  0  0  0
  3  5  1  0  0  0  0
  4 15  1  0  0  0  0
  4 16  1  0  0  0  0
  4 17  1  0  0  0  0
  5  6  2  0  0  0  0
  5  7  1  0  0  0  0
  7  8  1  0  0  0  0
  8  9  1  0  0  0  0
  8 10  1  0  0  0  0
  8 18  1  0  0  0  0
  9 19  1  0  0  0  0
  9 20  1  0  0  0  0
  9 21  1  0  0  0  0
 10 22  1  0  0  0  0
 10 23  1  0  0  0  0
 10 24  1  0  0  0  0
M  END
$$$$
