
 OpenBabel06272214203D

 17 16  0  0  0  0  0  0  0  0999 V2000
    0.9948    0.0623   -0.0762 C   0  0  0  0  0  0  0  0  0  0  0  0
    2.5255    0.0595   -0.1145 C   0  0  0  0  0  0  0  0  0  0  0  0
    2.9768   -0.4486   -1.4885 C   0  0  0  0  0  0  0  0  0  0  0  0
    3.1019    1.4588    0.1901 C   0  0  0  0  0  0  0  0  0  0  0  0
    4.6207    1.4456    0.2506 C   0  0  0  0  0  0  0  0  0  0  0  0
    5.3194    0.4443    0.1566 O   0  0  0  0  0  0  0  0  0  0  0  0
    5.1764    2.6613    0.4383 O   0  0  0  0  0  0  0  0  0  0  0  0
    0.6054   -0.9452   -0.2664 H   0  0  0  0  0  0  0  0  0  0  0  0
    0.5816    0.7273   -0.8424 H   0  0  0  0  0  0  0  0  0  0  0  0
    0.6179    0.3854    0.8989 H   0  0  0  0  0  0  0  0  0  0  0  0
    2.8811   -0.6403    0.6535 H   0  0  0  0  0  0  0  0  0  0  0  0
    2.6262    0.2176   -2.2830 H   0  0  0  0  0  0  0  0  0  0  0  0
    2.5858   -1.4531   -1.6774 H   0  0  0  0  0  0  0  0  0  0  0  0
    4.0636   -0.5159   -1.5734 H   0  0  0  0  0  0  0  0  0  0  0  0
    2.7298    1.8035    1.1630 H   0  0  0  0  0  0  0  0  0  0  0  0
    2.7730    2.1698   -0.5772 H   0  0  0  0  0  0  0  0  0  0  0  0
    4.5500    3.3988    0.5468 H   0  0  0  0  0  0  0  0  0  0  0  0
  1  2  1  0  0  0  0
  1  8  1  0  0  0  0
  1  9  1  0  0  0  0
  1 10  1  0  0  0  0
  2  3  1  0  0  0  0
  2  4  1  0  0  0  0
  2 11  1  0  0  0  0
  3 12  1  0  0  0  0
  3 13  1  0  0  0  0
  3 14  1  0  0  0  0
  4  5  1  0  0  0  0
  4 15  1  0  0  0  0
  4 16  1  0  0  0  0
  5  6  2  0  0  0  0
  5  7  1  0  0  0  0
  7 17  1  0  0  0  0
M  END
$$$$
