
 OpenBabel06272214203D

 19 19  0  0  0  0  0  0  0  0999 V2000
    1.1812   -0.0321    0.0324 C   0  0  0  0  0  0  0  0  0  0  0  0
    2.6128   -0.0403    0.0147 O   0  0  0  0  0  0  0  0  0  0  0  0
    3.1812   -0.9172    0.8805 C   0  0  0  0  0  0  0  0  0  0  0  0
    2.5806   -1.7214    1.5824 O   0  0  0  0  0  0  0  0  0  0  0  0
    4.6634   -0.8595    0.8285 C   0  0  0  0  0  0  0  0  0  0  0  0
    5.3750   -2.0711    0.8279 C   0  0  0  0  0  0  0  0  0  0  0  0
    6.7736   -2.0738    0.8516 C   0  0  0  0  0  0  0  0  0  0  0  0
    7.4703   -0.8673    0.8967 C   0  0  0  0  0  0  0  0  0  0  0  0
    6.7714    0.3434    0.9092 C   0  0  0  0  0  0  0  0  0  0  0  0
    5.3715    0.3465    0.8723 C   0  0  0  0  0  0  0  0  0  0  0  0
    4.6953    1.5330    0.9268 O   0  0  0  0  0  0  0  0  0  0  0  0
    0.8312    0.7190   -0.6830 H   0  0  0  0  0  0  0  0  0  0  0  0
    0.8050    0.2427    1.0237 H   0  0  0  0  0  0  0  0  0  0  0  0
    0.7841   -1.0053   -0.2734 H   0  0  0  0  0  0  0  0  0  0  0  0
    4.8402   -3.0188    0.8188 H   0  0  0  0  0  0  0  0  0  0  0  0
    7.3188   -3.0158    0.8484 H   0  0  0  0  0  0  0  0  0  0  0  0
    8.5584   -0.8725    0.9340 H   0  0  0  0  0  0  0  0  0  0  0  0
    7.3360    1.2698    0.9678 H   0  0  0  0  0  0  0  0  0  0  0  0
    5.3208    2.2737    0.8932 H   0  0  0  0  0  0  0  0  0  0  0  0
  1  2  1  0  0  0  0
  1 12  1  0  0  0  0
  1 13  1  0  0  0  0
  1 14  1  0  0  0  0
  2  3  1  0  0  0  0
  3  4  2  0  0  0  0
  3  5  1  0  0  0  0
  5  6  2  0  0  0  0
  5 10  1  0  0  0  0
  6  7  1  0  0  0  0
  6 15  1  0  0  0  0
  7  8  2  0  0  0  0
  7 16  1  0  0  0  0
  8  9  1  0  0  0  0
  8 17  1  0  0  0  0
  9 10  2  0  0  0  0
  9 18  1  0  0  0  0
 10 11  1  0  0  0  0
 11 19  1  0  0  0  0
M  END
$$$$
