
 OpenBabel06272214203D

 25 24  0  0  0  0  0  0  0  0999 V2000
    1.0495    0.0734   -0.0392 C   0  0  0  0  0  0  0  0  0  0  0  0
    2.5662    0.0657   -0.0420 C   0  0  0  0  0  0  0  0  0  0  0  0
    3.0923   -1.2777   -0.5308 C   0  0  0  0  0  0  0  0  0  0  0  0
    4.6149   -1.2894   -0.5351 C   0  0  0  0  0  0  0  0  0  0  0  0
    5.1341   -2.6346   -1.0246 C   0  0  0  0  0  0  0  0  0  0  0  0
    6.6572   -2.6523   -1.0310 C   0  0  0  0  0  0  0  0  0  0  0  0
    7.1711   -3.9982   -1.5208 C   0  0  0  0  0  0  0  0  0  0  0  0
    8.6741   -4.0294   -1.5321 C   0  0  0  0  0  0  0  0  0  0  0  0
    9.3132   -5.0156   -1.8910 O   0  0  0  0  0  0  0  0  0  0  0  0
    0.6755    1.0388    0.3121 H   0  0  0  0  0  0  0  0  0  0  0  0
    0.6597   -0.7086    0.6203 H   0  0  0  0  0  0  0  0  0  0  0  0
    0.6597   -0.1019   -1.0470 H   0  0  0  0  0  0  0  0  0  0  0  0
    2.9363    0.2657    0.9704 H   0  0  0  0  0  0  0  0  0  0  0  0
    2.9363    0.8695   -0.6891 H   0  0  0  0  0  0  0  0  0  0  0  0
    2.7184   -1.4775   -1.5426 H   0  0  0  0  0  0  0  0  0  0  0  0
    2.7184   -2.0810    0.1160 H   0  0  0  0  0  0  0  0  0  0  0  0
    4.9904   -1.0923    0.4764 H   0  0  0  0  0  0  0  0  0  0  0  0
    4.9904   -0.4883   -1.1834 H   0  0  0  0  0  0  0  0  0  0  0  0
    4.7558   -2.8312   -2.0354 H   0  0  0  0  0  0  0  0  0  0  0  0
    4.7558   -3.4348   -0.3765 H   0  0  0  0  0  0  0  0  0  0  0  0
    7.0362   -2.4507   -0.0211 H   0  0  0  0  0  0  0  0  0  0  0  0
    7.0362   -1.8488   -1.6752 H   0  0  0  0  0  0  0  0  0  0  0  0
    6.8164   -4.1880   -2.5392 H   0  0  0  0  0  0  0  0  0  0  0  0
    6.8164   -4.7981   -0.8625 H   0  0  0  0  0  0  0  0  0  0  0  0
    9.1929   -3.1149   -1.1994 H   0  0  0  0  0  0  0  0  0  0  0  0
  1  2  1  0  0  0  0
  1 10  1  0  0  0  0
  1 11  1  0  0  0  0
  1 12  1  0  0  0  0
  2  3  1  0  0  0  0
  2 13  1  0  0  0  0
  2 14  1  0  0  0  0
  3  4  1  0  0  0  0
  3 15  1  0  0  0  0
  3 16  1  0  0  0  0
  4  5  1  0  0  0  0
  4 17  1  0  0  0  0
  4 18  1  0  0  0  0
  5  6  1  0  0  0  0
  5 19  1  0  0  0  0
  5 20  1  0  0  0  0
  6  7  1  0  0  0  0
  6 21  1  0  0  0  0
  6 22  1  0  0  0  0
  7  8  1  0  0  0  0
  7 23  1  0  0  0  0
  7 24  1  0  0  0  0
  8  9  2  0  0  0  0
  8 25  1  0  0  0  0
M  END
$$$$
