
 OpenBabel06272214203D

 11 10  0  0  0  0  0  0  0  0999 V2000
    1.0282    0.0896   -0.0667 C   0  0  0  0  0  0  0  0  0  0  0  0
    2.5502    0.0617   -0.0023 C   0  0  0  0  0  0  0  0  0  0  0  0
    3.0090   -0.5105    1.3201 C   0  0  0  0  0  0  0  0  0  0  0  0
    2.2589   -0.8946    2.2077 O   0  0  0  0  0  0  0  0  0  0  0  0
    4.3517   -0.5692    1.4558 O   0  0  0  0  0  0  0  0  0  0  0  0
    0.6773    0.5010   -1.0174 H   0  0  0  0  0  0  0  0  0  0  0  0
    0.6165    0.7018    0.7436 H   0  0  0  0  0  0  0  0  0  0  0  0
    0.6165   -0.9202    0.0418 H   0  0  0  0  0  0  0  0  0  0  0  0
    2.9366    1.0808   -0.1098 H   0  0  0  0  0  0  0  0  0  0  0  0
    2.9366   -0.5576   -0.8187 H   0  0  0  0  0  0  0  0  0  0  0  0
    4.8661   -0.2405    0.6961 H   0  0  0  0  0  0  0  0  0  0  0  0
  1  2  1  0  0  0  0
  1  6  1  0  0  0  0
  1  7  1  0  0  0  0
  1  8  1  0  0  0  0
  2  3  1  0  0  0  0
  2  9  1  0  0  0  0
  2 10  1  0  0  0  0
  3  4  2  0  0  0  0
  3  5  1  0  0  0  0
  5 11  1  0  0  0  0
M  END
$$$$
