
 OpenBabel07222214433D

 20 20  0  0  0  0  0  0  0  0999 V2000
    1.0466   -0.1282   -0.0589 C   0  0  0  0  0  0  0  0  0  0  0  0
    2.4691   -0.1186   -0.0453 O   0  0  0  0  0  0  0  0  0  0  0  0
    3.0828    1.1089   -0.0482 C   0  0  0  0  0  0  0  0  0  0  0  0
    4.4875    1.0211   -0.0638 C   0  0  0  0  0  0  0  0  0  0  0  0
    5.2823    2.1727   -0.0859 C   0  0  0  0  0  0  0  0  0  0  0  0
    4.6427    3.4240   -0.0891 C   0  0  0  0  0  0  0  0  0  0  0  0
    3.2470    3.5232   -0.0609 C   0  0  0  0  0  0  0  0  0  0  0  0
    2.4688    2.3685   -0.0380 C   0  0  0  0  0  0  0  0  0  0  0  0
    1.1081    2.4937   -0.0036 O   0  0  0  0  0  0  0  0  0  0  0  0
    6.7783    2.1615   -0.1076 C   0  0  0  0  0  0  0  0  0  0  0  0
    7.3897    0.9607   -0.1013 O   0  0  0  0  0  0  0  0  0  0  0  0
    7.4259    3.2007   -0.1293 O   0  0  0  0  0  0  0  0  0  0  0  0
    0.7107   -1.1680   -0.0699 H   0  0  0  0  0  0  0  0  0  0  0  0
    0.6583    0.3452   -0.9676 H   0  0  0  0  0  0  0  0  0  0  0  0
    0.6451    0.3283    0.8521 H   0  0  0  0  0  0  0  0  0  0  0  0
    4.9160    0.0259   -0.0589 H   0  0  0  0  0  0  0  0  0  0  0  0
    5.2335    4.3396   -0.1120 H   0  0  0  0  0  0  0  0  0  0  0  0
    2.7863    4.5072   -0.0586 H   0  0  0  0  0  0  0  0  0  0  0  0
    0.8442    3.4266    0.0215 H   0  0  0  0  0  0  0  0  0  0  0  0
    6.8433    0.1586   -0.0839 H   0  0  0  0  0  0  0  0  0  0  0  0
  1  2  1  0  0  0  0
  1 13  1  0  0  0  0
  1 14  1  0  0  0  0
  1 15  1  0  0  0  0
  2  3  1  0  0  0  0
  3  4  1  0  0  0  0
  3  8  2  0  0  0  0
  4  5  2  0  0  0  0
  4 16  1  0  0  0  0
  5  6  1  0  0  0  0
  5 10  1  0  0  0  0
  6  7  2  0  0  0  0
  6 17  1  0  0  0  0
  7  8  1  0  0  0  0
  7 18  1  0  0  0  0
  8  9  1  0  0  0  0
  9 19  1  0  0  0  0
 10 11  1  0  0  0  0
 10 12  2  0  0  0  0
 11 20  1  0  0  0  0
M  END
$$$$
