
 OpenBabel07222214443D

 13 12  0  0  0  0  0  0  0  0999 V2000
    0.9519    0.0478   -0.0563 C   0  0  0  0  0  0  0  0  0  0  0  0
    2.4760    0.0632   -0.0665 C   0  0  0  0  0  0  0  0  0  0  0  0
    2.9890    1.1045   -1.0517 C   0  0  0  0  0  0  0  0  0  0  0  0
    3.0155    0.3618    1.3164 C   0  0  0  0  0  0  0  0  0  0  0  0
    4.2159    0.4192    1.5730 O   0  0  0  0  0  0  0  0  0  0  0  0
    0.5600   -0.1871   -1.0516 H   0  0  0  0  0  0  0  0  0  0  0  0
    0.5479    1.0200    0.2478 H   0  0  0  0  0  0  0  0  0  0  0  0
    0.5711   -0.7024    0.6446 H   0  0  0  0  0  0  0  0  0  0  0  0
    2.8371   -0.9326   -0.3495 H   0  0  0  0  0  0  0  0  0  0  0  0
    2.6483    2.1084   -0.7740 H   0  0  0  0  0  0  0  0  0  0  0  0
    2.6332    0.8905   -2.0646 H   0  0  0  0  0  0  0  0  0  0  0  0
    4.0836    1.1223   -1.0728 H   0  0  0  0  0  0  0  0  0  0  0  0
    2.2696    0.5370    2.1099 H   0  0  0  0  0  0  0  0  0  0  0  0
  1  2  1  0  0  0  0
  1  6  1  0  0  0  0
  1  7  1  0  0  0  0
  1  8  1  0  0  0  0
  2  3  1  0  0  0  0
  2  4  1  0  0  0  0
  2  9  1  0  0  0  0
  3 10  1  0  0  0  0
  3 11  1  0  0  0  0
  3 12  1  0  0  0  0
  4  5  2  0  0  0  0
  4 13  1  0  0  0  0
M  END
$$$$
