
 OpenBabel07222214433D

 40 39  0  0  0  0  0  0  0  0999 V2000
    0.9859    0.0229    0.0974 C   0  0  0  0  0  0  0  0  0  0  0  0
    2.5170    0.0457    0.0446 C   0  0  0  0  0  0  0  0  0  0  0  0
    3.0204   -1.3283   -0.3842 C   0  0  0  0  0  0  0  0  0  0  0  0
    2.9910    1.1360   -0.9088 C   0  0  0  0  0  0  0  0  0  0  0  0
    2.2365    1.8773   -1.5332 O   0  0  0  0  0  0  0  0  0  0  0  0
    4.3543    1.2133   -0.9610 O   0  0  0  0  0  0  0  0  0  0  0  0
    4.8126    2.2353   -1.8583 C   0  0  0  0  0  0  0  0  0  0  0  0
    6.3181    2.2686   -1.8893 C   0  0  0  0  0  0  0  0  0  0  0  0
    7.0299    3.1310   -2.6472 C   0  0  0  0  0  0  0  0  0  0  0  0
    8.5409    3.1239   -2.6413 C   0  0  0  0  0  0  0  0  0  0  0  0
    6.3183    4.1407   -3.5339 C   0  0  0  0  0  0  0  0  0  0  0  0
    7.2548    5.0418   -4.3252 C   0  0  0  0  0  0  0  0  0  0  0  0
    6.5454    6.0311   -5.1939 C   0  0  0  0  0  0  0  0  0  0  0  0
    7.2127    6.9088   -5.9646 C   0  0  0  0  0  0  0  0  0  0  0  0
    8.7184    6.9653   -6.0142 C   0  0  0  0  0  0  0  0  0  0  0  0
    6.4762    7.8909   -6.8269 C   0  0  0  0  0  0  0  0  0  0  0  0
    0.6222   -0.7490    0.7840 H   0  0  0  0  0  0  0  0  0  0  0  0
    0.5625   -0.1820   -0.8932 H   0  0  0  0  0  0  0  0  0  0  0  0
    0.5889    0.9870    0.4326 H   0  0  0  0  0  0  0  0  0  0  0  0
    2.8912    0.2848    1.0476 H   0  0  0  0  0  0  0  0  0  0  0  0
    2.6738   -1.5744   -1.3940 H   0  0  0  0  0  0  0  0  0  0  0  0
    2.6557   -2.1064    0.2963 H   0  0  0  0  0  0  0  0  0  0  0  0
    4.1135   -1.3715   -0.3862 H   0  0  0  0  0  0  0  0  0  0  0  0
    4.4394    3.2079   -1.5148 H   0  0  0  0  0  0  0  0  0  0  0  0
    4.4389    2.0184   -2.8666 H   0  0  0  0  0  0  0  0  0  0  0  0
    6.8413    1.5529   -1.2612 H   0  0  0  0  0  0  0  0  0  0  0  0
    8.9531    2.3631   -1.9732 H   0  0  0  0  0  0  0  0  0  0  0  0
    8.9329    4.0920   -2.3089 H   0  0  0  0  0  0  0  0  0  0  0  0
    8.9328    2.9195   -3.6443 H   0  0  0  0  0  0  0  0  0  0  0  0
    5.6723    4.7735   -2.9110 H   0  0  0  0  0  0  0  0  0  0  0  0
    5.6723    3.6048   -4.2418 H   0  0  0  0  0  0  0  0  0  0  0  0
    7.8889    4.4171   -4.9661 H   0  0  0  0  0  0  0  0  0  0  0  0
    7.8889    5.5966   -3.6229 H   0  0  0  0  0  0  0  0  0  0  0  0
    5.4571    6.0249   -5.1884 H   0  0  0  0  0  0  0  0  0  0  0  0
    9.1999    6.2263   -5.3653 H   0  0  0  0  0  0  0  0  0  0  0  0
    9.0753    7.9450   -5.6854 H   0  0  0  0  0  0  0  0  0  0  0  0
    9.0753    6.7659   -7.0282 H   0  0  0  0  0  0  0  0  0  0  0  0
    5.3898    7.7822   -6.7315 H   0  0  0  0  0  0  0  0  0  0  0  0
    6.7326    7.7399   -7.8797 H   0  0  0  0  0  0  0  0  0  0  0  0
    6.7326    8.9153   -6.5411 H   0  0  0  0  0  0  0  0  0  0  0  0
  1  2  1  0  0  0  0
  1 17  1  0  0  0  0
  1 18  1  0  0  0  0
  1 19  1  0  0  0  0
  2  3  1  0  0  0  0
  2  4  1  0  0  0  0
  2 20  1  0  0  0  0
  3 21  1  0  0  0  0
  3 22  1  0  0  0  0
  3 23  1  0  0  0  0
  4  5  2  0  0  0  0
  4  6  1  0  0  0  0
  6  7  1  0  0  0  0
  7  8  1  0  0  0  0
  7 24  1  0  0  0  0
  7 25  1  0  0  0  0
  8  9  2  0  0  0  0
  8 26  1  0  0  0  0
  9 10  1  0  0  0  0
  9 11  1  0  0  0  0
 10 27  1  0  0  0  0
 10 28  1  0  0  0  0
 10 29  1  0  0  0  0
 11 12  1  0  0  0  0
 11 30  1  0  0  0  0
 11 31  1  0  0  0  0
 12 13  1  0  0  0  0
 12 32  1  0  0  0  0
 12 33  1  0  0  0  0
 13 14  2  0  0  0  0
 13 34  1  0  0  0  0
 14 15  1  0  0  0  0
 14 16  1  0  0  0  0
 15 35  1  0  0  0  0
 15 36  1  0  0  0  0
 15 37  1  0  0  0  0
 16 38  1  0  0  0  0
 16 39  1  0  0  0  0
 16 40  1  0  0  0  0
M  END
$$$$
