
 OpenBabel07202215583D

 26 26  0  0  0  0  0  0  0  0999 V2000
    1.0169    0.1037   -0.0224 C   0  0  0  0  0  0  0  0  0  0  0  0
    2.5201    0.0811   -0.0822 C   0  0  0  0  0  0  0  0  0  0  0  0
    3.1470   -0.3603   -1.1896 C   0  0  0  0  0  0  0  0  0  0  0  0
    3.2614    0.5662    1.1615 C   0  0  0  0  0  0  0  0  0  0  0  0
    4.6111   -0.1438    1.3636 C   0  0  0  0  0  0  0  0  0  0  0  0
    5.3266    0.3172    2.6261 C   0  0  0  0  0  0  0  0  0  0  0  0
    5.2757    1.8042    2.8442 C   0  0  0  0  0  0  0  0  0  0  0  0
    4.4363    2.6016    2.1572 C   0  0  0  0  0  0  0  0  0  0  0  0
    3.4677    2.0953    1.1210 C   0  0  0  0  0  0  0  0  0  0  0  0
    6.2238    2.3356    3.8779 C   0  0  0  0  0  0  0  0  0  0  0  0
    0.5698   -0.2668   -0.9519 H   0  0  0  0  0  0  0  0  0  0  0  0
    0.6512    1.1226    0.1366 H   0  0  0  0  0  0  0  0  0  0  0  0
    0.6539   -0.5324    0.7916 H   0  0  0  0  0  0  0  0  0  0  0  0
    2.5985   -0.7080   -2.0571 H   0  0  0  0  0  0  0  0  0  0  0  0
    4.2275   -0.3775   -1.2741 H   0  0  0  0  0  0  0  0  0  0  0  0
    2.6438    0.3266    2.0409 H   0  0  0  0  0  0  0  0  0  0  0  0
    5.2793    0.0549    0.5167 H   0  0  0  0  0  0  0  0  0  0  0  0
    4.4661   -1.2302    1.4111 H   0  0  0  0  0  0  0  0  0  0  0  0
    6.3715   -0.0095    2.5536 H   0  0  0  0  0  0  0  0  0  0  0  0
    4.8889   -0.1770    3.5005 H   0  0  0  0  0  0  0  0  0  0  0  0
    4.4319    3.6742    2.3389 H   0  0  0  0  0  0  0  0  0  0  0  0
    3.8388    2.4047    0.1352 H   0  0  0  0  0  0  0  0  0  0  0  0
    2.5013    2.5958    1.2630 H   0  0  0  0  0  0  0  0  0  0  0  0
    6.8470    1.5299    4.2830 H   0  0  0  0  0  0  0  0  0  0  0  0
    5.6756    2.7764    4.7150 H   0  0  0  0  0  0  0  0  0  0  0  0
    6.8989    3.0804    3.4455 H   0  0  0  0  0  0  0  0  0  0  0  0
  1  2  1  0  0  0  0
  1 11  1  0  0  0  0
  1 12  1  0  0  0  0
  1 13  1  0  0  0  0
  2  3  2  0  0  0  0
  2  4  1  0  0  0  0
  3 14  1  0  0  0  0
  3 15  1  0  0  0  0
  4  5  1  0  0  0  0
  4  9  1  0  0  0  0
  4 16  1  0  0  0  0
  5  6  1  0  0  0  0
  5 17  1  0  0  0  0
  5 18  1  0  0  0  0
  6  7  1  0  0  0  0
  6 19  1  0  0  0  0
  6 20  1  0  0  0  0
  7  8  2  0  0  0  0
  7 10  1  0  0  0  0
  8  9  1  0  0  0  0
  8 21  1  0  0  0  0
  9 22  1  0  0  0  0
  9 23  1  0  0  0  0
 10 24  1  0  0  0  0
 10 25  1  0  0  0  0
 10 26  1  0  0  0  0
M  END
$$$$
