
 OpenBabel07122215493D

 25 24  0  0  0  0  0  0  0  0999 V2000
    1.0138    0.0089   -0.0821 C   0  0  0  0  0  0  0  0  0  0  0  0
    2.5302    0.0188   -0.0936 C   0  0  0  0  0  0  0  0  0  0  0  0
    3.0508    0.9563   -1.1790 C   0  0  0  0  0  0  0  0  0  0  0  0
    4.5702    0.9641   -1.1880 C   0  0  0  0  0  0  0  0  0  0  0  0
    5.1267    1.8926   -2.2630 C   0  0  0  0  0  0  0  0  0  0  0  0
    6.6414    1.8655   -2.2317 C   0  0  0  0  0  0  0  0  0  0  0  0
    7.2577    1.1670   -1.4229 O   0  0  0  0  0  0  0  0  0  0  0  0
    7.3646    2.7354   -3.2388 C   0  0  0  0  0  0  0  0  0  0  0  0
    8.8684    2.5920   -3.0728 C   0  0  0  0  0  0  0  0  0  0  0  0
    0.6432   -0.6635    0.6964 H   0  0  0  0  0  0  0  0  0  0  0  0
    0.6226   -0.3306   -1.0464 H   0  0  0  0  0  0  0  0  0  0  0  0
    0.6226    1.0123    0.1135 H   0  0  0  0  0  0  0  0  0  0  0  0
    2.9021   -0.9983   -0.2659 H   0  0  0  0  0  0  0  0  0  0  0  0
    2.9021    0.3373    0.8877 H   0  0  0  0  0  0  0  0  0  0  0  0
    2.6773    1.9722   -1.0033 H   0  0  0  0  0  0  0  0  0  0  0  0
    2.6773    0.6347   -2.1585 H   0  0  0  0  0  0  0  0  0  0  0  0
    4.9417   -0.0554   -1.3546 H   0  0  0  0  0  0  0  0  0  0  0  0
    4.9417    1.2772   -0.2035 H   0  0  0  0  0  0  0  0  0  0  0  0
    4.7881    2.9199   -2.0893 H   0  0  0  0  0  0  0  0  0  0  0  0
    4.7881    1.5713   -3.2541 H   0  0  0  0  0  0  0  0  0  0  0  0
    7.0690    3.7780   -3.0826 H   0  0  0  0  0  0  0  0  0  0  0  0
    7.0690    2.4292   -4.2476 H   0  0  0  0  0  0  0  0  0  0  0  0
    9.1748    2.8875   -2.0629 H   0  0  0  0  0  0  0  0  0  0  0  0
    9.4059    3.2136   -3.7925 H   0  0  0  0  0  0  0  0  0  0  0  0
    9.1748    1.5499   -3.2182 H   0  0  0  0  0  0  0  0  0  0  0  0
  1  2  1  0  0  0  0
  1 10  1  0  0  0  0
  1 11  1  0  0  0  0
  1 12  1  0  0  0  0
  2  3  1  0  0  0  0
  2 13  1  0  0  0  0
  2 14  1  0  0  0  0
  3  4  1  0  0  0  0
  3 15  1  0  0  0  0
  3 16  1  0  0  0  0
  4  5  1  0  0  0  0
  4 17  1  0  0  0  0
  4 18  1  0  0  0  0
  5  6  1  0  0  0  0
  5 19  1  0  0  0  0
  5 20  1  0  0  0  0
  6  7  2  0  0  0  0
  6  8  1  0  0  0  0
  8  9  1  0  0  0  0
  8 21  1  0  0  0  0
  8 22  1  0  0  0  0
  9 23  1  0  0  0  0
  9 24  1  0  0  0  0
  9 25  1  0  0  0  0
M  END
$$$$
