
 OpenBabel07202215583D

 22 22  0  0  0  0  0  0  0  0999 V2000
    0.9974    0.0656   -0.0904 C   0  0  0  0  0  0  0  0  0  0  0  0
    2.4187    0.0254   -0.0539 O   0  0  0  0  0  0  0  0  0  0  0  0
    3.0573    1.2056   -0.3276 C   0  0  0  0  0  0  0  0  0  0  0  0
    4.1926    1.2057   -1.1589 C   0  0  0  0  0  0  0  0  0  0  0  0
    4.9857    2.3667   -1.2397 C   0  0  0  0  0  0  0  0  0  0  0  0
    4.5829    3.5408   -0.5925 C   0  0  0  0  0  0  0  0  0  0  0  0
    3.4388    3.5421    0.2036 C   0  0  0  0  0  0  0  0  0  0  0  0
    2.6899    2.3757    0.3451 C   0  0  0  0  0  0  0  0  0  0  0  0
    5.3216    4.8051   -0.7922 C   0  0  0  0  0  0  0  0  0  0  0  0
    4.9459    5.8606   -0.2837 O   0  0  0  0  0  0  0  0  0  0  0  0
    4.6262    0.1745   -1.9600 O   0  0  0  0  0  0  0  0  0  0  0  0
    3.7602   -0.9513   -2.1028 C   0  0  0  0  0  0  0  0  0  0  0  0
    0.6423   -0.9561    0.0776 H   0  0  0  0  0  0  0  0  0  0  0  0
    0.6406    0.3910   -1.0727 H   0  0  0  0  0  0  0  0  0  0  0  0
    0.5834    0.6870    0.7066 H   0  0  0  0  0  0  0  0  0  0  0  0
    5.9084    2.3447   -1.8156 H   0  0  0  0  0  0  0  0  0  0  0  0
    3.1348    4.4432    0.7323 H   0  0  0  0  0  0  0  0  0  0  0  0
    1.8333    2.3946    1.0094 H   0  0  0  0  0  0  0  0  0  0  0  0
    6.2085    4.7756   -1.4430 H   0  0  0  0  0  0  0  0  0  0  0  0
    4.1583   -1.6083   -2.8816 H   0  0  0  0  0  0  0  0  0  0  0  0
    2.7509   -0.6599   -2.4205 H   0  0  0  0  0  0  0  0  0  0  0  0
    3.7440   -1.5354   -1.1777 H   0  0  0  0  0  0  0  0  0  0  0  0
  1  2  1  0  0  0  0
  1 13  1  0  0  0  0
  1 14  1  0  0  0  0
  1 15  1  0  0  0  0
  2  3  1  0  0  0  0
  3  4  2  0  0  0  0
  3  8  1  0  0  0  0
  4  5  1  0  0  0  0
  4 11  1  0  0  0  0
  5  6  2  0  0  0  0
  5 16  1  0  0  0  0
  6  7  1  0  0  0  0
  6  9  1  0  0  0  0
  7  8  2  0  0  0  0
  7 17  1  0  0  0  0
  8 18  1  0  0  0  0
  9 10  2  0  0  0  0
  9 19  1  0  0  0  0
 11 12  1  0  0  0  0
 12 20  1  0  0  0  0
 12 21  1  0  0  0  0
 12 22  1  0  0  0  0
M  END
$$$$
