
 OpenBabel07222214433D

 46 49  0  0  1  0  0  0  0  0999 V2000
    0.8943    0.0925   -0.1206 C   0  0  0  0  0  0  0  0  0  0  0  0
    2.4116    0.2104    0.0356 C   0  0  2  0  0  0  0  0  0  0  0  0
    2.8798   -0.2940    1.4083 C   0  0  0  0  0  0  0  0  0  0  0  0
    2.4122   -1.6414    1.7863 C   0  0  0  0  0  0  0  0  0  0  0  0
    2.9921   -2.6718    0.8373 C   0  0  1  0  0  0  0  0  0  0  0  0
    2.9067   -2.1199   -0.6931 C   0  0  1  0  0  0  0  0  0  0  0  0
    3.2194   -3.2976   -1.6529 C   0  0  0  0  0  0  0  0  0  0  0  0
    2.8212   -4.6961   -1.0943 C   0  0  0  0  0  0  0  0  0  0  0  0
    3.4776   -4.9494    0.2840 C   0  0  0  0  0  0  0  0  0  0  0  0
    4.3157   -5.9612    0.5973 C   0  0  0  0  0  0  0  0  0  0  0  0
    4.0659   -6.4081    1.9942 C   0  0  0  0  0  0  0  0  0  0  0  0
    4.6755   -6.0980    3.0467 O   0  0  0  0  0  0  0  0  0  0  0  0
    2.7566   -7.0477    2.0383 C   0  0  0  0  0  0  0  0  0  0  0  0
    1.7823   -5.6155    1.6386 C   0  0  0  0  0  0  0  0  0  0  0  0
    2.7376   -4.2381    1.3968 C   0  0  2  0  0  0  0  0  0  0  0  0
    3.0851   -4.0457    2.9218 C   0  0  0  0  0  0  0  0  0  0  0  0
    3.2796   -0.3891   -1.1542 C   0  0  2  0  0  0  0  0  0  0  0  0
    4.2189    1.1374   -1.3680 C   0  0  0  0  0  0  0  0  0  0  0  0
    4.2070    1.6618    0.0080 C   0  0  0  0  0  0  0  0  0  0  0  0
    2.8744    1.6305    0.2176 C   0  0  0  0  0  0  0  0  0  0  0  0
    0.4928   -0.8897    0.1532 H   0  0  0  0  0  0  0  0  0  0  0  0
    0.5709    0.2869   -1.1461 H   0  0  0  0  0  0  0  0  0  0  0  0
    0.4068    0.8014    0.5529 H   0  0  0  0  0  0  0  0  0  0  0  0
    2.5771    0.3997    2.2027 H   0  0  0  0  0  0  0  0  0  0  0  0
    3.9798   -0.3561    1.4788 H   0  0  0  0  0  0  0  0  0  0  0  0
    1.3312   -1.7287    1.8815 H   0  0  0  0  0  0  0  0  0  0  0  0
    2.8459   -1.6911    2.7843 H   0  0  0  0  0  0  0  0  0  0  0  0
    4.0919   -2.5963    0.9565 H   0  0  0  0  0  0  0  0  0  0  0  0
    1.8129   -2.0808   -0.8338 H   0  0  0  0  0  0  0  0  0  0  0  0
    4.2867   -3.3337   -1.8423 H   0  0  0  0  0  0  0  0  0  0  0  0
    2.6788   -3.1580   -2.6008 H   0  0  0  0  0  0  0  0  0  0  0  0
    3.0804   -5.4894   -1.8088 H   0  0  0  0  0  0  0  0  0  0  0  0
    1.7137   -4.7730   -1.0330 H   0  0  0  0  0  0  0  0  0  0  0  0
    4.4101   -6.7624   -0.1318 H   0  0  0  0  0  0  0  0  0  0  0  0
    2.7432   -7.5499    3.0273 H   0  0  0  0  0  0  0  0  0  0  0  0
    2.9677   -7.8537    1.2893 H   0  0  0  0  0  0  0  0  0  0  0  0
    1.0926   -5.4290    2.4700 H   0  0  0  0  0  0  0  0  0  0  0  0
    1.1320   -5.8371    0.7861 H   0  0  0  0  0  0  0  0  0  0  0  0
    2.5380   -3.2493    3.4214 H   0  0  0  0  0  0  0  0  0  0  0  0
    4.1519   -3.8958    3.0737 H   0  0  0  0  0  0  0  0  0  0  0  0
    2.6838   -4.8331    3.5648 H   0  0  0  0  0  0  0  0  0  0  0  0
    3.0429   -0.4774   -2.2260 H   0  0  0  0  0  0  0  0  0  0  0  0
    3.6731    2.0114   -1.8688 H   0  0  0  0  0  0  0  0  0  0  0  0
    5.2409    1.2822   -1.7516 H   0  0  0  0  0  0  0  0  0  0  0  0
    4.9517    0.9944    0.4670 H   0  0  0  0  0  0  0  0  0  0  0  0
    2.2297    2.2885   -0.3723 H   0  0  0  0  0  0  0  0  0  0  0  0
  1 21  1  0  0  0  0
  1 22  1  0  0  0  0
  1 23  1  0  0  0  0
  2  3  1  0  0  0  0
  2 17  1  0  0  0  0
  2 20  1  0  0  0  0
  2  1  1  1  0  0  0
  3  4  1  0  0  0  0
  3 24  1  0  0  0  0
  3 25  1  0  0  0  0
  4  5  1  0  0  0  0
  4 26  1  0  0  0  0
  4 27  1  0  0  0  0
  5  6  1  0  0  0  0
  5 15  1  0  0  0  0
  5 28  1  6  0  0  0
  6  7  1  0  0  0  0
  6 17  1  0  0  0  0
  6 29  1  1  0  0  0
  7  8  1  0  0  0  0
  7 30  1  0  0  0  0
  7 31  1  0  0  0  0
  8  9  1  0  0  0  0
  8 32  1  0  0  0  0
  8 33  1  0  0  0  0
  9 10  2  0  0  0  0
  9 15  1  0  0  0  0
 10 11  1  0  0  0  0
 10 34  1  0  0  0  0
 11 13  1  0  0  0  0
 11 12  2  0  0  0  0
 13 14  1  0  0  0  0
 13 35  1  0  0  0  0
 13 36  1  0  0  0  0
 14 15  1  0  0  0  0
 14 37  1  0  0  0  0
 14 38  1  0  0  0  0
 15 16  1  1  0  0  0
 16 39  1  0  0  0  0
 16 40  1  0  0  0  0
 16 41  1  0  0  0  0
 17 18  1  0  0  0  0
 17 42  1  6  0  0  0
 18 19  1  0  0  0  0
 18 43  1  0  0  0  0
 18 44  1  0  0  0  0
 19 20  2  0  0  0  0
 19 45  1  0  0  0  0
 20 46  1  0  0  0  0
M  END
$$$$
