
 OpenBabel07222214433D

 32 31  0  0  0  0  0  0  0  0999 V2000
    1.1561    0.0130    0.0717 O   0  0  0  0  0  0  0  0  0  0  0  0
    2.5025    0.0075   -0.0258 C   0  0  0  0  0  0  0  0  0  0  0  0
    3.0665   -0.0544   -1.1104 O   0  0  0  0  0  0  0  0  0  0  0  0
    3.2132    0.0835    1.3067 C   0  0  0  0  0  0  0  0  0  0  0  0
    4.7259    0.0709    1.0863 C   0  0  0  0  0  0  0  0  0  0  0  0
    5.5002    0.1455    2.3934 C   0  0  0  0  0  0  0  0  0  0  0  0
    6.9999    0.1298    2.1170 C   0  0  0  0  0  0  0  0  0  0  0  0
    7.7774    0.2041    3.4199 C   0  0  0  0  0  0  0  0  0  0  0  0
    9.2762    0.1887    3.1503 C   0  0  0  0  0  0  0  0  0  0  0  0
   10.0255    0.2641    4.4704 C   0  0  0  0  0  0  0  0  0  0  0  0
   11.5309    0.2526    4.2690 C   0  0  0  0  0  0  0  0  0  0  0  0
   12.3512    0.3250    5.5374 C   0  0  0  0  0  0  0  0  0  0  0  0
   11.6814    0.3916    6.7045 O   0  0  0  0  0  0  0  0  0  0  0  0
   13.5761    0.3236    5.5139 O   0  0  0  0  0  0  0  0  0  0  0  0
    0.8014    0.0648    0.9780 H   0  0  0  0  0  0  0  0  0  0  0  0
    2.9215   -0.7758    1.9207 H   0  0  0  0  0  0  0  0  0  0  0  0
    2.9215    1.0071    1.8190 H   0  0  0  0  0  0  0  0  0  0  0  0
    5.0122    0.9159    0.4467 H   0  0  0  0  0  0  0  0  0  0  0  0
    5.0122   -0.8413    0.5470 H   0  0  0  0  0  0  0  0  0  0  0  0
    5.2346   -0.7031    3.0349 H   0  0  0  0  0  0  0  0  0  0  0  0
    5.2346    1.0616    2.9342 H   0  0  0  0  0  0  0  0  0  0  0  0
    7.2727    0.9774    1.4762 H   0  0  0  0  0  0  0  0  0  0  0  0
    7.2727   -0.7852    1.5768 H   0  0  0  0  0  0  0  0  0  0  0  0
    7.5069   -0.6431    4.0626 H   0  0  0  0  0  0  0  0  0  0  0  0
    7.5069    1.1190    3.9620 H   0  0  0  0  0  0  0  0  0  0  0  0
    9.5506    1.0377    2.5128 H   0  0  0  0  0  0  0  0  0  0  0  0
    9.5506   -0.7273    2.6135 H   0  0  0  0  0  0  0  0  0  0  0  0
    9.7310   -0.5866    5.0975 H   0  0  0  0  0  0  0  0  0  0  0  0
    9.7310    1.1806    4.9967 H   0  0  0  0  0  0  0  0  0  0  0  0
   11.8169    1.1061    3.6424 H   0  0  0  0  0  0  0  0  0  0  0  0
   11.8169   -0.6667    3.7435 H   0  0  0  0  0  0  0  0  0  0  0  0
   10.7090    0.3896    6.6695 H   0  0  0  0  0  0  0  0  0  0  0  0
  1  2  1  0  0  0  0
  1 15  1  0  0  0  0
  2  3  2  0  0  0  0
  2  4  1  0  0  0  0
  4  5  1  0  0  0  0
  4 16  1  0  0  0  0
  4 17  1  0  0  0  0
  5  6  1  0  0  0  0
  5 18  1  0  0  0  0
  5 19  1  0  0  0  0
  6  7  1  0  0  0  0
  6 20  1  0  0  0  0
  6 21  1  0  0  0  0
  7  8  1  0  0  0  0
  7 22  1  0  0  0  0
  7 23  1  0  0  0  0
  8  9  1  0  0  0  0
  8 24  1  0  0  0  0
  8 25  1  0  0  0  0
  9 10  1  0  0  0  0
  9 26  1  0  0  0  0
  9 27  1  0  0  0  0
 10 11  1  0  0  0  0
 10 28  1  0  0  0  0
 10 29  1  0  0  0  0
 11 12  1  0  0  0  0
 11 30  1  0  0  0  0
 11 31  1  0  0  0  0
 12 13  1  0  0  0  0
 12 14  2  0  0  0  0
 13 32  1  0  0  0  0
M  END
$$$$
