
 OpenBabel07202215583D

  6  5  0  0  0  0  0  0  0  0999 V2000
    1.0502   -0.0608    0.0911 C   0  0  0  0  0  0  0  0  0  0  0  0
    2.8529   -0.0024    0.0457 S   0  0  0  0  0  0  0  0  0  0  0  0
    0.6992    0.0691    1.1180 H   0  0  0  0  0  0  0  0  0  0  0  0
    0.6992   -1.0245   -0.2863 H   0  0  0  0  0  0  0  0  0  0  0  0
    0.6383    0.7377   -0.5307 H   0  0  0  0  0  0  0  0  0  0  0  0
    3.0623   -1.0475    0.8596 H   0  0  0  0  0  0  0  0  0  0  0  0
  1  2  1  0  0  0  0
  1  3  1  0  0  0  0
  1  4  1  0  0  0  0
  1  5  1  0  0  0  0
  2  6  1  0  0  0  0
M  END
$$$$
