
 OpenBabel07122215493D

 29 28  0  0  0  0  0  0  0  0999 V2000
    1.0399    0.0495   -0.0928 C   0  0  0  0  0  0  0  0  0  0  0  0
    2.5363    0.0506   -0.0838 C   0  0  0  0  0  0  0  0  0  0  0  0
    3.2569   -0.0594   -1.4021 C   0  0  0  0  0  0  0  0  0  0  0  0
    3.2062    0.1475    1.0841 C   0  0  0  0  0  0  0  0  0  0  0  0
    4.6991    0.1509    1.1284 C   0  0  0  0  0  0  0  0  0  0  0  0
    5.3106    0.2677    2.5218 C   0  0  0  0  0  0  0  0  0  0  0  0
    6.8296    0.2726    2.5141 C   0  0  0  0  0  0  0  0  0  0  0  0
    7.5938    0.1610    1.2140 C   0  0  0  0  0  0  0  0  0  0  0  0
    7.5091    0.3652    3.6766 C   0  0  0  0  0  0  0  0  0  0  0  0
    9.0040    0.3650    3.7454 C   0  0  0  0  0  0  0  0  0  0  0  0
    9.4186    0.4648    5.0952 O   0  0  0  0  0  0  0  0  0  0  0  0
    0.6412   -0.0350   -1.1077 H   0  0  0  0  0  0  0  0  0  0  0  0
    0.6567    0.9796    0.3393 H   0  0  0  0  0  0  0  0  0  0  0  0
    0.6570   -0.7966    0.4870 H   0  0  0  0  0  0  0  0  0  0  0  0
    2.5666   -0.1297   -2.2465 H   0  0  0  0  0  0  0  0  0  0  0  0
    3.8898   -0.9540   -1.4231 H   0  0  0  0  0  0  0  0  0  0  0  0
    3.8899    0.8193   -1.5708 H   0  0  0  0  0  0  0  0  0  0  0  0
    2.6637    0.2248    2.0221 H   0  0  0  0  0  0  0  0  0  0  0  0
    5.0494    0.9984    0.5248 H   0  0  0  0  0  0  0  0  0  0  0  0
    5.0496   -0.7848    0.6737 H   0  0  0  0  0  0  0  0  0  0  0  0
    4.9544   -0.5686    3.1384 H   0  0  0  0  0  0  0  0  0  0  0  0
    4.9498    1.1920    2.9925 H   0  0  0  0  0  0  0  0  0  0  0  0
    6.9753    0.0855    0.3201 H   0  0  0  0  0  0  0  0  0  0  0  0
    8.2196   -0.7371    1.2210 H   0  0  0  0  0  0  0  0  0  0  0  0
    8.2228    1.0450    1.0699 H   0  0  0  0  0  0  0  0  0  0  0  0
    6.9634    0.4264    4.6158 H   0  0  0  0  0  0  0  0  0  0  0  0
    9.4202    1.2127    3.1909 H   0  0  0  0  0  0  0  0  0  0  0  0
    9.4066   -0.5662    3.3356 H   0  0  0  0  0  0  0  0  0  0  0  0
    9.1203    1.3319    5.4149 H   0  0  0  0  0  0  0  0  0  0  0  0
  1  2  1  0  0  0  0
  1 12  1  0  0  0  0
  1 13  1  0  0  0  0
  1 14  1  0  0  0  0
  2  3  1  0  0  0  0
  2  4  2  0  0  0  0
  3 15  1  0  0  0  0
  3 16  1  0  0  0  0
  3 17  1  0  0  0  0
  4  5  1  0  0  0  0
  4 18  1  0  0  0  0
  5  6  1  0  0  0  0
  5 19  1  0  0  0  0
  5 20  1  0  0  0  0
  6  7  1  0  0  0  0
  6 21  1  0  0  0  0
  6 22  1  0  0  0  0
  7  8  1  0  0  0  0
  7  9  2  0  0  0  0
  8 23  1  0  0  0  0
  8 24  1  0  0  0  0
  8 25  1  0  0  0  0
  9 10  1  0  0  0  0
  9 26  1  0  0  0  0
 10 11  1  0  0  0  0
 10 27  1  0  0  0  0
 10 28  1  0  0  0  0
 11 29  1  0  0  0  0
M  END
$$$$
