
 OpenBabel07202215583D

 31 30  0  0  0  0  0  0  0  0999 V2000
    0.9754    0.0559    0.0752 C   0  0  0  0  0  0  0  0  0  0  0  0
    2.4917    0.0632    0.0727 C   0  0  0  0  0  0  0  0  0  0  0  0
    3.0158    1.4116   -0.4015 C   0  0  0  0  0  0  0  0  0  0  0  0
    4.5366    1.4221   -0.4052 C   0  0  0  0  0  0  0  0  0  0  0  0
    5.0524    2.7717   -0.8798 C   0  0  0  0  0  0  0  0  0  0  0  0
    6.5731    2.7811   -0.8831 C   0  0  0  0  0  0  0  0  0  0  0  0
    7.0906    4.1303   -1.3575 C   0  0  0  0  0  0  0  0  0  0  0  0
    8.6130    4.1464   -1.3632 C   0  0  0  0  0  0  0  0  0  0  0  0
    9.1264    5.4972   -1.8382 C   0  0  0  0  0  0  0  0  0  0  0  0
   10.6290    5.5280   -1.8490 C   0  0  0  0  0  0  0  0  0  0  0  0
   11.2683    6.5180   -2.1972 O   0  0  0  0  0  0  0  0  0  0  0  0
    0.6015   -0.9130    0.4160 H   0  0  0  0  0  0  0  0  0  0  0  0
    0.5862    0.2426   -0.9307 H   0  0  0  0  0  0  0  0  0  0  0  0
    0.5862    0.8312    0.7430 H   0  0  0  0  0  0  0  0  0  0  0  0
    2.8625   -0.7331   -0.5833 H   0  0  0  0  0  0  0  0  0  0  0  0
    2.8625   -0.1472    1.0827 H   0  0  0  0  0  0  0  0  0  0  0  0
    2.6427    2.2083    0.2540 H   0  0  0  0  0  0  0  0  0  0  0  0
    2.6427    1.6227   -1.4113 H   0  0  0  0  0  0  0  0  0  0  0  0
    4.9135    0.6288   -1.0623 H   0  0  0  0  0  0  0  0  0  0  0  0
    4.9135    1.2147    0.6039 H   0  0  0  0  0  0  0  0  0  0  0  0
    4.6763    3.5661   -0.2233 H   0  0  0  0  0  0  0  0  0  0  0  0
    4.6763    2.9804   -1.8890 H   0  0  0  0  0  0  0  0  0  0  0  0
    6.9475    1.9861   -1.5396 H   0  0  0  0  0  0  0  0  0  0  0  0
    6.9475    2.5720    0.1265 H   0  0  0  0  0  0  0  0  0  0  0  0
    6.7118    4.9229   -0.7005 H   0  0  0  0  0  0  0  0  0  0  0  0
    6.7118    4.3372   -2.3660 H   0  0  0  0  0  0  0  0  0  0  0  0
    8.9913    3.3494   -2.0158 H   0  0  0  0  0  0  0  0  0  0  0  0
    8.9913    3.9333   -0.3553 H   0  0  0  0  0  0  0  0  0  0  0  0
    8.7713    6.2896   -1.1711 H   0  0  0  0  0  0  0  0  0  0  0  0
    8.7713    5.6977   -2.8544 H   0  0  0  0  0  0  0  0  0  0  0  0
   11.1476    4.6099   -1.5261 H   0  0  0  0  0  0  0  0  0  0  0  0
  1  2  1  0  0  0  0
  1 12  1  0  0  0  0
  1 13  1  0  0  0  0
  1 14  1  0  0  0  0
  2  3  1  0  0  0  0
  2 15  1  0  0  0  0
  2 16  1  0  0  0  0
  3  4  1  0  0  0  0
  3 17  1  0  0  0  0
  3 18  1  0  0  0  0
  4  5  1  0  0  0  0
  4 19  1  0  0  0  0
  4 20  1  0  0  0  0
  5  6  1  0  0  0  0
  5 21  1  0  0  0  0
  5 22  1  0  0  0  0
  6  7  1  0  0  0  0
  6 23  1  0  0  0  0
  6 24  1  0  0  0  0
  7  8  1  0  0  0  0
  7 25  1  0  0  0  0
  7 26  1  0  0  0  0
  8  9  1  0  0  0  0
  8 27  1  0  0  0  0
  8 28  1  0  0  0  0
  9 10  1  0  0  0  0
  9 29  1  0  0  0  0
  9 30  1  0  0  0  0
 10 11  2  0  0  0  0
 10 31  1  0  0  0  0
M  END
$$$$
