
 OpenBabel07122215493D

 29 28  0  0  0  0  0  0  0  0999 V2000
    1.0195   -0.0866    0.0628 C   0  0  0  0  0  0  0  0  0  0  0  0
    2.5365   -0.0800    0.0563 C   0  0  0  0  0  0  0  0  0  0  0  0
    3.0638    0.9366   -0.9494 C   0  0  0  0  0  0  0  0  0  0  0  0
    4.5871    0.9448   -0.9575 C   0  0  0  0  0  0  0  0  0  0  0  0
    5.1137    1.9623   -1.9642 C   0  0  0  0  0  0  0  0  0  0  0  0
    6.6118    1.9767   -1.9784 C   0  0  0  0  0  0  0  0  0  0  0  0
    7.3106    2.7894   -2.7824 C   0  0  0  0  0  0  0  0  0  0  0  0
    8.8090    2.8097   -2.8025 C   0  0  0  0  0  0  0  0  0  0  0  0
    9.3296    3.8273   -3.8091 C   0  0  0  0  0  0  0  0  0  0  0  0
   10.8323    3.8473   -3.8289 C   0  0  0  0  0  0  0  0  0  0  0  0
   11.4741    4.5923   -4.5659 O   0  0  0  0  0  0  0  0  0  0  0  0
    0.6461   -0.8171    0.7855 H   0  0  0  0  0  0  0  0  0  0  0  0
    0.6291   -0.3488   -0.9257 H   0  0  0  0  0  0  0  0  0  0  0  0
    0.6291    0.8990    0.3356 H   0  0  0  0  0  0  0  0  0  0  0  0
    2.9062   -1.0809   -0.1954 H   0  0  0  0  0  0  0  0  0  0  0  0
    2.9062    0.1609    1.0598 H   0  0  0  0  0  0  0  0  0  0  0  0
    2.6901    1.9366   -0.6971 H   0  0  0  0  0  0  0  0  0  0  0  0
    2.6901    0.6951   -1.9521 H   0  0  0  0  0  0  0  0  0  0  0  0
    4.9599   -0.0564   -1.2089 H   0  0  0  0  0  0  0  0  0  0  0  0
    4.9599    1.1853    0.0463 H   0  0  0  0  0  0  0  0  0  0  0  0
    4.7401    2.9602   -1.7033 H   0  0  0  0  0  0  0  0  0  0  0  0
    4.7401    1.7123   -2.9647 H   0  0  0  0  0  0  0  0  0  0  0  0
    7.1380    1.2995   -1.3085 H   0  0  0  0  0  0  0  0  0  0  0  0
    6.7733    3.4628   -3.4485 H   0  0  0  0  0  0  0  0  0  0  0  0
    9.1851    1.8111   -3.0583 H   0  0  0  0  0  0  0  0  0  0  0  0
    9.1851    3.0548   -1.8012 H   0  0  0  0  0  0  0  0  0  0  0  0
    8.9795    4.8323   -3.5487 H   0  0  0  0  0  0  0  0  0  0  0  0
    8.9795    3.5777   -4.8168 H   0  0  0  0  0  0  0  0  0  0  0  0
   11.3504    3.1553   -3.1443 H   0  0  0  0  0  0  0  0  0  0  0  0
  1  2  1  0  0  0  0
  1 12  1  0  0  0  0
  1 13  1  0  0  0  0
  1 14  1  0  0  0  0
  2  3  1  0  0  0  0
  2 15  1  0  0  0  0
  2 16  1  0  0  0  0
  3  4  1  0  0  0  0
  3 17  1  0  0  0  0
  3 18  1  0  0  0  0
  4  5  1  0  0  0  0
  4 19  1  0  0  0  0
  4 20  1  0  0  0  0
  5  6  1  0  0  0  0
  5 21  1  0  0  0  0
  5 22  1  0  0  0  0
  6  7  2  0  0  0  0
  6 23  1  0  0  0  0
  7  8  1  0  0  0  0
  7 24  1  0  0  0  0
  8  9  1  0  0  0  0
  8 25  1  0  0  0  0
  8 26  1  0  0  0  0
  9 10  1  0  0  0  0
  9 27  1  0  0  0  0
  9 28  1  0  0  0  0
 10 11  2  0  0  0  0
 10 29  1  0  0  0  0
M  END
$$$$
