
 OpenBabel07122215493D

 38 39  0  0  1  0  0  0  0  0999 V2000
    1.0231    0.2052    0.0597 C   0  0  0  0  0  0  0  0  0  0  0  0
    2.5596    0.0885   -0.0207 C   0  0  2  0  0  0  0  0  0  0  0  0
    3.0892    1.2013   -0.9083 C   0  0  0  0  0  0  0  0  0  0  0  0
    4.5211    0.9444   -1.3464 C   0  0  0  0  0  0  0  0  0  0  0  0
    5.3290    1.8373   -1.4150 O   0  0  0  0  0  0  0  0  0  0  0  0
    4.8931   -0.4589   -1.7737 C   0  0  0  0  0  0  0  0  0  0  0  0
    4.3143   -1.5534   -1.2289 C   0  0  0  0  0  0  0  0  0  0  0  0
    2.9653   -1.3511   -0.4994 C   0  0  1  0  0  0  0  0  0  0  0  0
    2.6933   -2.2978    0.6763 C   0  0  0  0  0  0  0  0  0  0  0  0
    2.8211   -3.7879    0.3324 C   0  0  1  0  0  0  0  0  0  0  0  0
    4.1780   -4.0543   -0.4503 C   0  0  0  0  0  0  0  0  0  0  0  0
    4.5473   -3.0693   -1.6496 C   0  0  0  0  0  0  0  0  0  0  0  0
    2.5163   -4.6378    1.5683 C   0  0  0  0  0  0  0  0  0  0  0  0
    2.1552   -4.1402    2.7701 C   0  0  0  0  0  0  0  0  0  0  0  0
    2.5020   -6.1207    1.3480 C   0  0  0  0  0  0  0  0  0  0  0  0
    2.1089   -1.8681   -1.6631 C   0  0  0  0  0  0  0  0  0  0  0  0
    0.6874    1.2223    0.2712 H   0  0  0  0  0  0  0  0  0  0  0  0
    0.5992   -0.4395    0.8348 H   0  0  0  0  0  0  0  0  0  0  0  0
    0.5742   -0.0899   -0.8936 H   0  0  0  0  0  0  0  0  0  0  0  0
    2.9616    0.2845    0.9917 H   0  0  0  0  0  0  0  0  0  0  0  0
    3.0598    2.1503   -0.3492 H   0  0  0  0  0  0  0  0  0  0  0  0
    2.4610    1.3430   -1.7926 H   0  0  0  0  0  0  0  0  0  0  0  0
    5.5636   -0.4807   -2.6309 H   0  0  0  0  0  0  0  0  0  0  0  0
    1.6436   -2.1559    0.9733 H   0  0  0  0  0  0  0  0  0  0  0  0
    3.2953   -2.0293    1.5560 H   0  0  0  0  0  0  0  0  0  0  0  0
    1.9741   -4.0654   -0.3219 H   0  0  0  0  0  0  0  0  0  0  0  0
    4.1590   -5.0891   -0.8276 H   0  0  0  0  0  0  0  0  0  0  0  0
    4.9903   -3.9880    0.2742 H   0  0  0  0  0  0  0  0  0  0  0  0
    3.9013   -3.3450   -2.5106 H   0  0  0  0  0  0  0  0  0  0  0  0
    5.5139   -3.2761   -2.1345 H   0  0  0  0  0  0  0  0  0  0  0  0
    2.0439   -3.0767    2.9671 H   0  0  0  0  0  0  0  0  0  0  0  0
    1.9429   -4.7727    3.6248 H   0  0  0  0  0  0  0  0  0  0  0  0
    2.6347   -6.3707    0.2909 H   0  0  0  0  0  0  0  0  0  0  0  0
    1.5434   -6.5590    1.6501 H   0  0  0  0  0  0  0  0  0  0  0  0
    3.3168   -6.5723    1.9152 H   0  0  0  0  0  0  0  0  0  0  0  0
    2.3982   -1.4697   -2.6419 H   0  0  0  0  0  0  0  0  0  0  0  0
    1.0718   -2.1470   -1.5306 H   0  0  0  0  0  0  0  0  0  0  0  0
    2.4073   -2.8916   -1.7423 H   0  0  0  0  0  0  0  0  0  0  0  0
  1  2  1  0  0  0  0
  1 17  1  0  0  0  0
  1 18  1  0  0  0  0
  1 19  1  0  0  0  0
  2  3  1  0  0  0  0
  2  8  1  0  0  0  0
  2 20  1  1  0  0  0
  3  4  1  0  0  0  0
  3 21  1  0  0  0  0
  3 22  1  0  0  0  0
  4  5  2  0  0  0  0
  4  6  1  0  0  0  0
  6  7  2  0  0  0  0
  6 23  1  0  0  0  0
  7  8  1  0  0  0  0
  7 12  1  0  0  0  0
  8  9  1  0  0  0  0
  8 16  1  6  0  0  0
  9 10  1  0  0  0  0
  9 24  1  0  0  0  0
  9 25  1  0  0  0  0
 10 11  1  0  0  0  0
 10 13  1  0  0  0  0
 10 26  1  6  0  0  0
 11 12  1  0  0  0  0
 11 27  1  0  0  0  0
 11 28  1  0  0  0  0
 12 29  1  0  0  0  0
 12 30  1  0  0  0  0
 13 14  2  0  0  0  0
 13 15  1  0  0  0  0
 14 31  1  0  0  0  0
 14 32  1  0  0  0  0
 15 33  1  0  0  0  0
 15 34  1  0  0  0  0
 15 35  1  0  0  0  0
 16 36  1  0  0  0  0
 16 37  1  0  0  0  0
 16 38  1  0  0  0  0
M  END
$$$$
