
 OpenBabel07202215583D

 21 21  0  0  0  0  0  0  0  0999 V2000
    1.1347    0.0398   -0.0778 C   0  0  0  0  0  0  0  0  0  0  0  0
    2.6342    0.1037   -0.0315 C   0  0  0  0  0  0  0  0  0  0  0  0
    3.2644    0.8763    0.6818 O   0  0  0  0  0  0  0  0  0  0  0  0
    3.1855   -0.8043   -0.8774 O   0  0  0  0  0  0  0  0  0  0  0  0
    4.6234   -0.8146   -0.8856 C   0  0  0  0  0  0  0  0  0  0  0  0
    5.1019   -1.8987   -1.8242 C   0  0  0  0  0  0  0  0  0  0  0  0
    4.6199   -3.2071   -1.6730 C   0  0  0  0  0  0  0  0  0  0  0  0
    5.0935   -4.2411   -2.4800 C   0  0  0  0  0  0  0  0  0  0  0  0
    6.0065   -3.9692   -3.4952 C   0  0  0  0  0  0  0  0  0  0  0  0
    6.4986   -2.6752   -3.6576 C   0  0  0  0  0  0  0  0  0  0  0  0
    6.0638   -1.6467   -2.8145 C   0  0  0  0  0  0  0  0  0  0  0  0
    0.7236    0.7943    0.6007 H   0  0  0  0  0  0  0  0  0  0  0  0
    0.7824   -0.9414    0.2512 H   0  0  0  0  0  0  0  0  0  0  0  0
    0.7747    0.2585   -1.0864 H   0  0  0  0  0  0  0  0  0  0  0  0
    5.0066   -1.0349    0.1194 H   0  0  0  0  0  0  0  0  0  0  0  0
    4.9959    0.1654   -1.2060 H   0  0  0  0  0  0  0  0  0  0  0  0
    3.8642   -3.4220   -0.9209 H   0  0  0  0  0  0  0  0  0  0  0  0
    4.7480   -5.2576   -2.3144 H   0  0  0  0  0  0  0  0  0  0  0  0
    6.3315   -4.7662   -4.1589 H   0  0  0  0  0  0  0  0  0  0  0  0
    7.2280   -2.4711   -4.4381 H   0  0  0  0  0  0  0  0  0  0  0  0
    6.4788   -0.6497   -2.9465 H   0  0  0  0  0  0  0  0  0  0  0  0
  1  2  1  0  0  0  0
  1 12  1  0  0  0  0
  1 13  1  0  0  0  0
  1 14  1  0  0  0  0
  2  3  2  0  0  0  0
  2  4  1  0  0  0  0
  4  5  1  0  0  0  0
  5  6  1  0  0  0  0
  5 15  1  0  0  0  0
  5 16  1  0  0  0  0
  6  7  1  0  0  0  0
  6 11  2  0  0  0  0
  7  8  2  0  0  0  0
  7 17  1  0  0  0  0
  8  9  1  0  0  0  0
  8 18  1  0  0  0  0
  9 10  2  0  0  0  0
  9 19  1  0  0  0  0
 10 11  1  0  0  0  0
 10 20  1  0  0  0  0
 11 21  1  0  0  0  0
M  END
$$$$
