
 OpenBabel07222214433D

 30 29  0  0  0  0  0  0  0  0999 V2000
    1.0497   -0.0507   -0.0451 C   0  0  0  0  0  0  0  0  0  0  0  0
    2.5681   -0.0580   -0.0485 C   0  0  0  0  0  0  0  0  0  0  0  0
    3.1026   -1.3565   -0.6444 C   0  0  0  0  0  0  0  0  0  0  0  0
    4.6313   -1.3694   -0.6503 C   0  0  0  0  0  0  0  0  0  0  0  0
    5.1549   -2.6724   -1.2483 C   0  0  0  0  0  0  0  0  0  0  0  0
    6.6866   -2.7360   -1.2775 C   0  0  0  0  0  0  0  0  0  0  0  0
    7.1490   -4.0493   -1.8802 C   0  0  0  0  0  0  0  0  0  0  0  0
    6.3914   -4.9261   -2.2826 O   0  0  0  0  0  0  0  0  0  0  0  0
    8.5120   -4.1359   -1.9199 O   0  0  0  0  0  0  0  0  0  0  0  0
    8.9711   -5.3752   -2.4887 C   0  0  0  0  0  0  0  0  0  0  0  0
   10.4733   -5.4119   -2.5055 C   0  0  0  0  0  0  0  0  0  0  0  0
   11.1732   -6.4529   -2.9833 C   0  0  0  0  0  0  0  0  0  0  0  0
    0.6750    0.8832    0.3834 H   0  0  0  0  0  0  0  0  0  0  0  0
    0.6585   -0.8827    0.5491 H   0  0  0  0  0  0  0  0  0  0  0  0
    0.6585   -0.1426   -1.0634 H   0  0  0  0  0  0  0  0  0  0  0  0
    2.9353    0.0605    0.9775 H   0  0  0  0  0  0  0  0  0  0  0  0
    2.9353    0.7971   -0.6276 H   0  0  0  0  0  0  0  0  0  0  0  0
    2.7264   -1.4736   -1.6686 H   0  0  0  0  0  0  0  0  0  0  0  0
    2.7264   -2.2094   -0.0654 H   0  0  0  0  0  0  0  0  0  0  0  0
    5.0025   -1.2543    0.3748 H   0  0  0  0  0  0  0  0  0  0  0  0
    5.0025   -0.5171   -1.2315 H   0  0  0  0  0  0  0  0  0  0  0  0
    4.7636   -2.7844   -2.2677 H   0  0  0  0  0  0  0  0  0  0  0  0
    4.7636   -3.5184   -0.6685 H   0  0  0  0  0  0  0  0  0  0  0  0
    7.0757   -2.6520   -0.2569 H   0  0  0  0  0  0  0  0  0  0  0  0
    7.0757   -1.9075   -1.8793 H   0  0  0  0  0  0  0  0  0  0  0  0
    8.6005   -5.4589   -3.5175 H   0  0  0  0  0  0  0  0  0  0  0  0
    8.6005   -6.2098   -1.8813 H   0  0  0  0  0  0  0  0  0  0  0  0
   11.0097   -4.5531   -2.1114 H   0  0  0  0  0  0  0  0  0  0  0  0
   10.6817   -7.3341   -3.3877 H   0  0  0  0  0  0  0  0  0  0  0  0
   12.2597   -6.4517   -2.9827 H   0  0  0  0  0  0  0  0  0  0  0  0
  1  2  1  0  0  0  0
  1 13  1  0  0  0  0
  1 14  1  0  0  0  0
  1 15  1  0  0  0  0
  2  3  1  0  0  0  0
  2 16  1  0  0  0  0
  2 17  1  0  0  0  0
  3  4  1  0  0  0  0
  3 18  1  0  0  0  0
  3 19  1  0  0  0  0
  4  5  1  0  0  0  0
  4 20  1  0  0  0  0
  4 21  1  0  0  0  0
  5  6  1  0  0  0  0
  5 22  1  0  0  0  0
  5 23  1  0  0  0  0
  6  7  1  0  0  0  0
  6 24  1  0  0  0  0
  6 25  1  0  0  0  0
  7  8  2  0  0  0  0
  7  9  1  0  0  0  0
  9 10  1  0  0  0  0
 10 11  1  0  0  0  0
 10 26  1  0  0  0  0
 10 27  1  0  0  0  0
 11 12  2  0  0  0  0
 11 28  1  0  0  0  0
 12 29  1  0  0  0  0
 12 30  1  0  0  0  0
M  END
$$$$
