
 OpenBabel07202215583D

 30 29  0  0  0  0  0  0  0  0999 V2000
    1.0479    0.0634    0.0607 C   0  0  0  0  0  0  0  0  0  0  0  0
    2.5815    0.0070    0.0559 C   0  0  0  0  0  0  0  0  0  0  0  0
    3.0754   -1.4506    0.0269 C   0  0  0  0  0  0  0  0  0  0  0  0
    2.6001   -2.2271    1.2446 C   0  0  0  0  0  0  0  0  0  0  0  0
    3.0890   -3.6398    1.2362 C   0  0  0  0  0  0  0  0  0  0  0  0
    2.7629   -4.5148    2.2063 C   0  0  0  0  0  0  0  0  0  0  0  0
    3.2710   -5.9242    2.1485 C   0  0  0  0  0  0  0  0  0  0  0  0
    1.8958   -4.0899    3.3681 C   0  0  0  0  0  0  0  0  0  0  0  0
    1.6831   -5.1472    4.2843 O   0  0  0  0  0  0  0  0  0  0  0  0
    3.1157    0.7804   -1.1558 C   0  0  0  0  0  0  0  0  0  0  0  0
    4.6227    0.8406   -1.1939 C   0  0  0  0  0  0  0  0  0  0  0  0
    5.2438    1.3745   -2.1120 O   0  0  0  0  0  0  0  0  0  0  0  0
    0.6234   -0.4170    0.9474 H   0  0  0  0  0  0  0  0  0  0  0  0
    0.6397   -0.4418   -0.8217 H   0  0  0  0  0  0  0  0  0  0  0  0
    0.6893    1.0962    0.0664 H   0  0  0  0  0  0  0  0  0  0  0  0
    2.9490    0.4863    0.9737 H   0  0  0  0  0  0  0  0  0  0  0  0
    4.1710   -1.4847    0.0102 H   0  0  0  0  0  0  0  0  0  0  0  0
    2.7341   -1.9414   -0.8931 H   0  0  0  0  0  0  0  0  0  0  0  0
    1.5072   -2.2562    1.2625 H   0  0  0  0  0  0  0  0  0  0  0  0
    2.9502   -1.7165    2.1502 H   0  0  0  0  0  0  0  0  0  0  0  0
    3.7143   -3.9557    0.4031 H   0  0  0  0  0  0  0  0  0  0  0  0
    3.8889   -6.1010    1.2613 H   0  0  0  0  0  0  0  0  0  0  0  0
    2.4346   -6.6284    2.1059 H   0  0  0  0  0  0  0  0  0  0  0  0
    3.8832   -6.1422    3.0281 H   0  0  0  0  0  0  0  0  0  0  0  0
    0.9164   -3.7470    3.0142 H   0  0  0  0  0  0  0  0  0  0  0  0
    2.3706   -3.2679    3.9149 H   0  0  0  0  0  0  0  0  0  0  0  0
    1.2036   -5.8390    3.8005 H   0  0  0  0  0  0  0  0  0  0  0  0
    2.7484    1.8121   -1.1243 H   0  0  0  0  0  0  0  0  0  0  0  0
    2.7684    0.3124   -2.0836 H   0  0  0  0  0  0  0  0  0  0  0  0
    5.1662    0.3863   -0.3502 H   0  0  0  0  0  0  0  0  0  0  0  0
  1  2  1  0  0  0  0
  1 13  1  0  0  0  0
  1 14  1  0  0  0  0
  1 15  1  0  0  0  0
  2  3  1  0  0  0  0
  2 10  1  0  0  0  0
  2 16  1  0  0  0  0
  3  4  1  0  0  0  0
  3 17  1  0  0  0  0
  3 18  1  0  0  0  0
  4  5  1  0  0  0  0
  4 19  1  0  0  0  0
  4 20  1  0  0  0  0
  5  6  2  0  0  0  0
  5 21  1  0  0  0  0
  6  7  1  0  0  0  0
  6  8  1  0  0  0  0
  7 22  1  0  0  0  0
  7 23  1  0  0  0  0
  7 24  1  0  0  0  0
  8  9  1  0  0  0  0
  8 25  1  0  0  0  0
  8 26  1  0  0  0  0
  9 27  1  0  0  0  0
 10 11  1  0  0  0  0
 10 28  1  0  0  0  0
 10 29  1  0  0  0  0
 11 12  2  0  0  0  0
 11 30  1  0  0  0  0
M  END
$$$$
