
 OpenBabel07202215583D

 29 28  0  0  0  0  0  0  0  0999 V2000
    1.0207    0.0876   -0.0428 C   0  0  0  0  0  0  0  0  0  0  0  0
    2.5410    0.0917   -0.0316 C   0  0  0  0  0  0  0  0  0  0  0  0
    3.0791    0.5846    1.3112 C   0  0  0  0  0  0  0  0  0  0  0  0
    4.6095    0.5933    1.3348 C   0  0  0  0  0  0  0  0  0  0  0  0
    5.1436    1.0864    2.6782 C   0  0  0  0  0  0  0  0  0  0  0  0
    6.5844    1.0834    2.6698 O   0  0  0  0  0  0  0  0  0  0  0  0
    7.1302    1.5152    3.8462 C   0  0  0  0  0  0  0  0  0  0  0  0
    6.4748    1.8722    4.8188 O   0  0  0  0  0  0  0  0  0  0  0  0
    8.6461    1.4972    3.7972 C   0  0  0  0  0  0  0  0  0  0  0  0
    9.2304    1.9856    5.1279 C   0  0  0  0  0  0  0  0  0  0  0  0
   10.7494    1.9888    5.1366 C   0  0  0  0  0  0  0  0  0  0  0  0
    0.6468   -0.2668   -1.0082 H   0  0  0  0  0  0  0  0  0  0  0  0
    0.6268    1.0949    0.1268 H   0  0  0  0  0  0  0  0  0  0  0  0
    0.6268   -0.5707    0.7382 H   0  0  0  0  0  0  0  0  0  0  0  0
    2.9065    0.7355   -0.8400 H   0  0  0  0  0  0  0  0  0  0  0  0
    2.9065   -0.9222   -0.2315 H   0  0  0  0  0  0  0  0  0  0  0  0
    2.6998   -0.0600    2.1140 H   0  0  0  0  0  0  0  0  0  0  0  0
    2.6998    1.5956    1.5062 H   0  0  0  0  0  0  0  0  0  0  0  0
    4.9935    1.2320    0.5303 H   0  0  0  0  0  0  0  0  0  0  0  0
    4.9935   -0.4142    1.1345 H   0  0  0  0  0  0  0  0  0  0  0  0
    4.7844    0.4269    3.4776 H   0  0  0  0  0  0  0  0  0  0  0  0
    4.7844    2.1066    2.8611 H   0  0  0  0  0  0  0  0  0  0  0  0
    8.9856    2.1495    2.9850 H   0  0  0  0  0  0  0  0  0  0  0  0
    8.9856    0.4743    3.5999 H   0  0  0  0  0  0  0  0  0  0  0  0
    8.8712    1.3488    5.9458 H   0  0  0  0  0  0  0  0  0  0  0  0
    8.8712    3.0004    5.3396 H   0  0  0  0  0  0  0  0  0  0  0  0
   11.1457    0.9822    4.9728 H   0  0  0  0  0  0  0  0  0  0  0  0
   11.1195    2.3442    6.1046 H   0  0  0  0  0  0  0  0  0  0  0  0
   11.1457    2.6504    4.3605 H   0  0  0  0  0  0  0  0  0  0  0  0
  1  2  1  0  0  0  0
  1 12  1  0  0  0  0
  1 13  1  0  0  0  0
  1 14  1  0  0  0  0
  2  3  1  0  0  0  0
  2 15  1  0  0  0  0
  2 16  1  0  0  0  0
  3  4  1  0  0  0  0
  3 17  1  0  0  0  0
  3 18  1  0  0  0  0
  4  5  1  0  0  0  0
  4 19  1  0  0  0  0
  4 20  1  0  0  0  0
  5  6  1  0  0  0  0
  5 21  1  0  0  0  0
  5 22  1  0  0  0  0
  6  7  1  0  0  0  0
  7  8  2  0  0  0  0
  7  9  1  0  0  0  0
  9 10  1  0  0  0  0
  9 23  1  0  0  0  0
  9 24  1  0  0  0  0
 10 11  1  0  0  0  0
 10 25  1  0  0  0  0
 10 26  1  0  0  0  0
 11 27  1  0  0  0  0
 11 28  1  0  0  0  0
 11 29  1  0  0  0  0
M  END
$$$$
