
 OpenBabel07202215583D

 19 18  0  0  0  0  0  0  0  0999 V2000
    1.1080    0.1457    0.1529 O   0  5  0  0  0  0  0  0  0  0  0  0
    2.3622   -0.0008    0.0693 C   0  0  0  0  0  0  0  0  0  0  0  0
    3.0230   -0.9331   -0.4629 O   0  0  0  0  0  0  0  0  0  0  0  0
    3.1667    1.1322    0.7161 C   0  0  0  0  0  0  0  0  0  0  0  0
    4.6726    0.9373    0.6048 C   0  0  0  0  0  0  0  0  0  0  0  0
    5.4416    2.0799    1.2571 C   0  0  0  0  0  0  0  0  0  0  0  0
    6.9472    1.8543    1.1283 C   0  0  0  0  0  0  0  0  0  0  0  0
    7.7068    2.9929    1.7783 C   0  0  0  0  0  0  0  0  0  0  0  0
    9.6233    2.6997    1.6109 Br  0  0  0  0  0  0  0  0  0  0  0  0
    2.8774    1.1994    1.7723 H   0  0  0  0  0  0  0  0  0  0  0  0
    2.8774    2.0759    0.2369 H   0  0  0  0  0  0  0  0  0  0  0  0
    4.9574    0.8647   -0.4522 H   0  0  0  0  0  0  0  0  0  0  0  0
    4.9574   -0.0098    1.0797 H   0  0  0  0  0  0  0  0  0  0  0  0
    5.1677    2.1545    2.3166 H   0  0  0  0  0  0  0  0  0  0  0  0
    5.1677    3.0301    0.7826 H   0  0  0  0  0  0  0  0  0  0  0  0
    7.2187    1.7729    0.0680 H   0  0  0  0  0  0  0  0  0  0  0  0
    7.2187    0.8999    1.5973 H   0  0  0  0  0  0  0  0  0  0  0  0
    7.4918    3.0653    2.8479 H   0  0  0  0  0  0  0  0  0  0  0  0
    7.4918    3.9507    1.2968 H   0  0  0  0  0  0  0  0  0  0  0  0
  1  2  1  0  0  0  0
  2  3  2  0  0  0  0
  2  4  1  0  0  0  0
  4  5  1  0  0  0  0
  4 10  1  0  0  0  0
  4 11  1  0  0  0  0
  5  6  1  0  0  0  0
  5 12  1  0  0  0  0
  5 13  1  0  0  0  0
  6  7  1  0  0  0  0
  6 14  1  0  0  0  0
  6 15  1  0  0  0  0
  7  8  1  0  0  0  0
  7 16  1  0  0  0  0
  7 17  1  0  0  0  0
  8  9  1  0  0  0  0
  8 18  1  0  0  0  0
  8 19  1  0  0  0  0
M  CHG  1   1  -1
M  END
$$$$
