
 OpenBabel07222214433D

 26 26  0  0  0  0  0  0  0  0999 V2000
    0.9458   -0.0161   -0.0847 C   0  0  0  0  0  0  0  0  0  0  0  0
    2.4641   -0.0270   -0.0881 C   0  0  0  0  0  0  0  0  0  0  0  0
    2.9944   -1.4208   -0.4086 C   0  0  0  0  0  0  0  0  0  0  0  0
    4.5192   -1.4390   -0.4152 C   0  0  0  0  0  0  0  0  0  0  0  0
    5.0398   -2.8377   -0.7382 C   0  0  0  0  0  0  0  0  0  0  0  0
    6.5437   -2.8630   -0.7187 C   0  0  0  0  0  0  0  0  0  0  0  0
    7.2205   -3.1483    0.4645 C   0  0  0  0  0  0  0  0  0  0  0  0
    8.6109   -3.1219    0.4625 C   0  0  0  0  0  0  0  0  0  0  0  0
    9.2829   -2.8104   -0.7119 C   0  0  0  0  0  0  0  0  0  0  0  0
    8.5331   -2.5358   -1.8433 C   0  0  0  0  0  0  0  0  0  0  0  0
    7.1827   -2.5519   -1.8711 N   0  0  0  0  0  0  0  0  0  0  0  0
    0.5732    0.9862    0.1446 H   0  0  0  0  0  0  0  0  0  0  0  0
    0.5537   -0.7085    0.6672 H   0  0  0  0  0  0  0  0  0  0  0  0
    0.5530   -0.3130   -1.0624 H   0  0  0  0  0  0  0  0  0  0  0  0
    2.8332    0.2973    0.8920 H   0  0  0  0  0  0  0  0  0  0  0  0
    2.8323    0.6924   -0.8287 H   0  0  0  0  0  0  0  0  0  0  0  0
    2.6181   -1.7439   -1.3870 H   0  0  0  0  0  0  0  0  0  0  0  0
    2.6214   -2.1371    0.3339 H   0  0  0  0  0  0  0  0  0  0  0  0
    4.8947   -1.1135    0.5635 H   0  0  0  0  0  0  0  0  0  0  0  0
    4.8960   -0.7187   -1.1527 H   0  0  0  0  0  0  0  0  0  0  0  0
    4.6859   -3.1534   -1.7273 H   0  0  0  0  0  0  0  0  0  0  0  0
    4.6479   -3.5674   -0.0189 H   0  0  0  0  0  0  0  0  0  0  0  0
    6.6759   -3.3810    1.3730 H   0  0  0  0  0  0  0  0  0  0  0  0
    9.1616   -3.3403    1.3725 H   0  0  0  0  0  0  0  0  0  0  0  0
   10.3658   -2.7806   -0.7461 H   0  0  0  0  0  0  0  0  0  0  0  0
    9.0113   -2.2869   -2.7856 H   0  0  0  0  0  0  0  0  0  0  0  0
  1  2  1  0  0  0  0
  1 12  1  0  0  0  0
  1 13  1  0  0  0  0
  1 14  1  0  0  0  0
  2  3  1  0  0  0  0
  2 15  1  0  0  0  0
  2 16  1  0  0  0  0
  3  4  1  0  0  0  0
  3 17  1  0  0  0  0
  3 18  1  0  0  0  0
  4  5  1  0  0  0  0
  4 19  1  0  0  0  0
  4 20  1  0  0  0  0
  5  6  1  0  0  0  0
  5 21  1  0  0  0  0
  5 22  1  0  0  0  0
  6  7  1  0  0  0  0
  6 11  2  0  0  0  0
  7  8  2  0  0  0  0
  7 23  1  0  0  0  0
  8  9  1  0  0  0  0
  8 24  1  0  0  0  0
  9 10  2  0  0  0  0
  9 25  1  0  0  0  0
 10 11  1  0  0  0  0
 10 26  1  0  0  0  0
M  END
$$$$
