
 OpenBabel07222214443D

 24 24  0  0  0  0  0  0  0  0999 V2000
    1.0685   -0.0131   -0.1255 C   0  0  0  0  0  0  0  0  0  0  0  0
    2.5601    0.0623    0.0108 C   0  0  0  0  0  0  0  0  0  0  0  0
    3.1234    0.5723    0.9757 O   0  0  0  0  0  0  0  0  0  0  0  0
    3.1815   -0.4926   -1.1038 O   0  0  0  0  0  0  0  0  0  0  0  0
    4.5951   -0.4985   -1.1606 C   0  0  0  0  0  0  0  0  0  0  0  0
    5.2743   -0.1272   -2.3335 C   0  0  0  0  0  0  0  0  0  0  0  0
    6.6722   -0.3092   -2.3923 C   0  0  0  0  0  0  0  0  0  0  0  0
    7.3801   -0.7379   -1.2606 C   0  0  0  0  0  0  0  0  0  0  0  0
    6.6937   -1.0841   -0.0983 C   0  0  0  0  0  0  0  0  0  0  0  0
    5.3053   -0.9918   -0.0601 C   0  0  0  0  0  0  0  0  0  0  0  0
    8.8603   -0.7695   -1.2536 C   0  0  0  0  0  0  0  0  0  0  0  0
    9.4966   -1.0799   -0.2522 O   0  0  0  0  0  0  0  0  0  0  0  0
    4.7376    0.4404   -3.4626 O   0  0  0  0  0  0  0  0  0  0  0  0
    3.3758    0.8549   -3.4045 C   0  0  0  0  0  0  0  0  0  0  0  0
    0.6217    0.4004    0.7849 H   0  0  0  0  0  0  0  0  0  0  0  0
    0.7355   -1.0492   -0.2241 H   0  0  0  0  0  0  0  0  0  0  0  0
    0.7297    0.5877   -0.9731 H   0  0  0  0  0  0  0  0  0  0  0  0
    7.2027   -0.0969   -3.3189 H   0  0  0  0  0  0  0  0  0  0  0  0
    7.2319   -1.4248    0.7836 H   0  0  0  0  0  0  0  0  0  0  0  0
    4.7879   -1.2774    0.8506 H   0  0  0  0  0  0  0  0  0  0  0  0
    9.3760   -0.4746   -2.1815 H   0  0  0  0  0  0  0  0  0  0  0  0
    3.1348    1.4151   -4.3127 H   0  0  0  0  0  0  0  0  0  0  0  0
    3.1848    1.5246   -2.5569 H   0  0  0  0  0  0  0  0  0  0  0  0
    2.7195   -0.0202   -3.3868 H   0  0  0  0  0  0  0  0  0  0  0  0
  1  2  1  0  0  0  0
  1 15  1  0  0  0  0
  1 16  1  0  0  0  0
  1 17  1  0  0  0  0
  2  3  2  0  0  0  0
  2  4  1  0  0  0  0
  4  5  1  0  0  0  0
  5  6  2  0  0  0  0
  5 10  1  0  0  0  0
  6  7  1  0  0  0  0
  6 13  1  0  0  0  0
  7  8  2  0  0  0  0
  7 18  1  0  0  0  0
  8  9  1  0  0  0  0
  8 11  1  0  0  0  0
  9 10  2  0  0  0  0
  9 19  1  0  0  0  0
 10 20  1  0  0  0  0
 11 12  2  0  0  0  0
 11 21  1  0  0  0  0
 13 14  1  0  0  0  0
 14 22  1  0  0  0  0
 14 23  1  0  0  0  0
 14 24  1  0  0  0  0
M  END
$$$$
