
 OpenBabel07122215493D

 17 16  0  0  0  0  0  0  0  0999 V2000
    1.0108   -0.0959   -0.0059 C   0  0  0  0  0  0  0  0  0  0  0  0
    2.5418   -0.1090    0.0588 C   0  0  0  0  0  0  0  0  0  0  0  0
    2.9597   -0.6069    1.4465 C   0  0  0  0  0  0  0  0  0  0  0  0
    3.1261   -0.9923   -1.0489 C   0  0  0  0  0  0  0  0  0  0  0  0
    4.6376   -1.0421   -1.1731 C   0  0  0  0  0  0  0  0  0  0  0  0
    5.3630   -0.2101   -0.4042 O   0  0  0  0  0  0  0  0  0  0  0  0
    5.1931   -1.7989   -1.9650 O   0  0  0  0  0  0  0  0  0  0  0  0
    0.6046    0.5703    0.7636 H   0  0  0  0  0  0  0  0  0  0  0  0
    0.6009   -1.0969    0.1684 H   0  0  0  0  0  0  0  0  0  0  0  0
    0.6498    0.2552   -0.9777 H   0  0  0  0  0  0  0  0  0  0  0  0
    2.8887    0.9213   -0.0918 H   0  0  0  0  0  0  0  0  0  0  0  0
    2.5653   -1.6106    1.6309 H   0  0  0  0  0  0  0  0  0  0  0  0
    2.5870    0.0700    2.2202 H   0  0  0  0  0  0  0  0  0  0  0  0
    4.0414   -0.6726    1.5800 H   0  0  0  0  0  0  0  0  0  0  0  0
    2.7450   -0.6516   -2.0210 H   0  0  0  0  0  0  0  0  0  0  0  0
    2.7762   -2.0233   -0.9055 H   0  0  0  0  0  0  0  0  0  0  0  0
    4.8842    0.3943    0.1893 H   0  0  0  0  0  0  0  0  0  0  0  0
  1  2  1  0  0  0  0
  1  8  1  0  0  0  0
  1  9  1  0  0  0  0
  1 10  1  0  0  0  0
  2  3  1  0  0  0  0
  2  4  1  0  0  0  0
  2 11  1  0  0  0  0
  3 12  1  0  0  0  0
  3 13  1  0  0  0  0
  3 14  1  0  0  0  0
  4  5  1  0  0  0  0
  4 15  1  0  0  0  0
  4 16  1  0  0  0  0
  5  6  1  0  0  0  0
  5  7  2  0  0  0  0
  6 17  1  0  0  0  0
M  END
$$$$
