
 OpenBabel07122215493D

 34 34  0  0  0  0  0  0  0  0999 V2000
    1.0591   -0.0271    0.1642 C   0  0  0  0  0  0  0  0  0  0  0  0
    2.5441   -0.0253    0.0233 C   0  0  0  0  0  0  0  0  0  0  0  0
    3.0698   -0.0412   -1.0879 O   0  0  0  0  0  0  0  0  0  0  0  0
    3.2011   -0.0044    1.2222 O   0  0  0  0  0  0  0  0  0  0  0  0
    4.6727   -0.0106    1.2106 C   0  0  0  0  0  0  0  0  0  0  0  0
    5.1559   -1.2846    0.4821 C   0  0  0  0  0  0  0  0  0  0  0  0
    5.1696    1.2369    0.4573 C   0  0  0  0  0  0  0  0  0  0  0  0
    5.1879    0.0011    2.7251 C   0  0  0  0  0  0  0  0  0  0  0  0
    6.1181   -1.1907    3.0358 C   0  0  0  0  0  0  0  0  0  0  0  0
    6.6356   -1.2302    4.4586 C   0  0  0  0  0  0  0  0  0  0  0  0
    7.0602    0.1028    4.9857 C   0  0  0  0  0  0  0  0  0  0  0  0
    6.7238    1.2532    4.3844 C   0  0  0  0  0  0  0  0  0  0  0  0
    5.9252    1.3126    3.1212 C   0  0  0  0  0  0  0  0  0  0  0  0
    7.8837    0.0646    6.2304 C   0  0  0  0  0  0  0  0  0  0  0  0
    0.6333   -0.0383   -0.8475 H   0  0  0  0  0  0  0  0  0  0  0  0
    0.7171    0.8822    0.6601 H   0  0  0  0  0  0  0  0  0  0  0  0
    0.7197   -0.9270    0.6790 H   0  0  0  0  0  0  0  0  0  0  0  0
    4.8327   -1.3441   -0.5554 H   0  0  0  0  0  0  0  0  0  0  0  0
    4.7582   -2.1856    0.9631 H   0  0  0  0  0  0  0  0  0  0  0  0
    6.2480   -1.3312    0.4495 H   0  0  0  0  0  0  0  0  0  0  0  0
    4.8319    1.2851   -0.5764 H   0  0  0  0  0  0  0  0  0  0  0  0
    6.2622    1.2546    0.4130 H   0  0  0  0  0  0  0  0  0  0  0  0
    4.7966    2.1521    0.9319 H   0  0  0  0  0  0  0  0  0  0  0  0
    4.3170   -0.0886    3.3931 H   0  0  0  0  0  0  0  0  0  0  0  0
    6.9904   -1.1554    2.3712 H   0  0  0  0  0  0  0  0  0  0  0  0
    5.6002   -2.1406    2.8674 H   0  0  0  0  0  0  0  0  0  0  0  0
    7.4829   -1.9276    4.4752 H   0  0  0  0  0  0  0  0  0  0  0  0
    5.8607   -1.6347    5.1173 H   0  0  0  0  0  0  0  0  0  0  0  0
    7.0675    2.2065    4.7810 H   0  0  0  0  0  0  0  0  0  0  0  0
    6.6620    1.5937    2.3625 H   0  0  0  0  0  0  0  0  0  0  0  0
    5.1968    2.1287    3.1932 H   0  0  0  0  0  0  0  0  0  0  0  0
    8.0638   -0.9713    6.5375 H   0  0  0  0  0  0  0  0  0  0  0  0
    7.3550    0.5661    7.0440 H   0  0  0  0  0  0  0  0  0  0  0  0
    8.8584    0.5338    6.0676 H   0  0  0  0  0  0  0  0  0  0  0  0
  1  2  1  0  0  0  0
  1 15  1  0  0  0  0
  1 16  1  0  0  0  0
  1 17  1  0  0  0  0
  2  3  2  0  0  0  0
  2  4  1  0  0  0  0
  4  5  1  0  0  0  0
  5  6  1  0  0  0  0
  5  7  1  0  0  0  0
  5  8  1  0  0  0  0
  6 18  1  0  0  0  0
  6 19  1  0  0  0  0
  6 20  1  0  0  0  0
  7 21  1  0  0  0  0
  7 22  1  0  0  0  0
  7 23  1  0  0  0  0
  8  9  1  0  0  0  0
  8 13  1  0  0  0  0
  8 24  1  0  0  0  0
  9 10  1  0  0  0  0
  9 25  1  0  0  0  0
  9 26  1  0  0  0  0
 10 11  1  0  0  0  0
 10 27  1  0  0  0  0
 10 28  1  0  0  0  0
 11 12  2  0  0  0  0
 11 14  1  0  0  0  0
 12 13  1  0  0  0  0
 12 29  1  0  0  0  0
 13 30  1  0  0  0  0
 13 31  1  0  0  0  0
 14 32  1  0  0  0  0
 14 33  1  0  0  0  0
 14 34  1  0  0  0  0
M  END
$$$$
