
 OpenBabel07202215583D

 27 27  0  0  0  0  0  0  0  0999 V2000
    1.0916    0.0709    0.0243 C   0  0  0  0  0  0  0  0  0  0  0  0
    2.6119    0.0639    0.0243 C   0  0  0  0  0  0  0  0  0  0  0  0
    3.0789   -1.0201    0.8430 O   0  0  0  0  0  0  0  0  0  0  0  0
    4.4357   -1.1242    0.9443 C   0  0  0  0  0  0  0  0  0  0  0  0
    5.2350   -0.3943    0.3683 O   0  0  0  0  0  0  0  0  0  0  0  0
    4.8543   -2.2861    1.8384 C   0  0  0  0  0  0  0  0  0  0  0  0
    4.0830   -2.2729    3.1640 C   0  0  0  0  0  0  0  0  0  0  0  0
    4.3928   -3.4861    4.0367 C   0  0  0  0  0  0  0  0  0  0  0  0
    4.1755   -4.7894    3.2766 C   0  0  0  0  0  0  0  0  0  0  0  0
    5.0102   -4.8166    2.0011 C   0  0  0  0  0  0  0  0  0  0  0  0
    4.6967   -3.6203    1.1014 C   0  0  0  0  0  0  0  0  0  0  0  0
    0.7065    0.8840   -0.5994 H   0  0  0  0  0  0  0  0  0  0  0  0
    0.7002    0.1964    1.0394 H   0  0  0  0  0  0  0  0  0  0  0  0
    0.6963   -0.8768   -0.3559 H   0  0  0  0  0  0  0  0  0  0  0  0
    2.9782    1.0154    0.4258 H   0  0  0  0  0  0  0  0  0  0  0  0
    2.9745   -0.0683   -1.0007 H   0  0  0  0  0  0  0  0  0  0  0  0
    5.9200   -2.1427    2.0695 H   0  0  0  0  0  0  0  0  0  0  0  0
    3.0040   -2.2574    2.9696 H   0  0  0  0  0  0  0  0  0  0  0  0
    4.3140   -1.3542    3.7160 H   0  0  0  0  0  0  0  0  0  0  0  0
    3.7529   -3.4677    4.9260 H   0  0  0  0  0  0  0  0  0  0  0  0
    5.4312   -3.4358    4.3862 H   0  0  0  0  0  0  0  0  0  0  0  0
    3.1131   -4.8985    3.0244 H   0  0  0  0  0  0  0  0  0  0  0  0
    4.4413   -5.6395    3.9150 H   0  0  0  0  0  0  0  0  0  0  0  0
    4.8212   -5.7485    1.4567 H   0  0  0  0  0  0  0  0  0  0  0  0
    6.0751   -4.8108    2.2655 H   0  0  0  0  0  0  0  0  0  0  0  0
    3.6715   -3.7157    0.7231 H   0  0  0  0  0  0  0  0  0  0  0  0
    5.3552   -3.6444    0.2246 H   0  0  0  0  0  0  0  0  0  0  0  0
  1  2  1  0  0  0  0
  1 12  1  0  0  0  0
  1 13  1  0  0  0  0
  1 14  1  0  0  0  0
  2  3  1  0  0  0  0
  2 15  1  0  0  0  0
  2 16  1  0  0  0  0
  3  4  1  0  0  0  0
  4  5  2  0  0  0  0
  4  6  1  0  0  0  0
  6  7  1  0  0  0  0
  6 11  1  0  0  0  0
  6 17  1  0  0  0  0
  7  8  1  0  0  0  0
  7 18  1  0  0  0  0
  7 19  1  0  0  0  0
  8  9  1  0  0  0  0
  8 20  1  0  0  0  0
  8 21  1  0  0  0  0
  9 10  1  0  0  0  0
  9 22  1  0  0  0  0
  9 23  1  0  0  0  0
 10 11  1  0  0  0  0
 10 24  1  0  0  0  0
 10 25  1  0  0  0  0
 11 26  1  0  0  0  0
 11 27  1  0  0  0  0
M  END
$$$$
