
 OpenBabel07202215583D

 48 51  0  0  1  0  0  0  0  0999 V2000
    1.0299    0.1329    0.0304 C   0  0  0  0  0  0  0  0  0  0  0  0
    2.5512    0.2718    0.1763 C   0  0  2  0  0  0  0  0  0  0  0  0
    3.0289   -0.1976    1.5663 C   0  0  0  0  0  0  0  0  0  0  0  0
    2.6372   -1.5626    1.9195 C   0  0  0  0  0  0  0  0  0  0  0  0
    3.3601   -2.5040    0.9710 C   0  0  1  0  0  0  0  0  0  0  0  0
    3.1076   -2.0095   -0.5524 C   0  0  1  0  0  0  0  0  0  0  0  0
    3.3120   -3.1837   -1.5708 C   0  0  0  0  0  0  0  0  0  0  0  0
    2.7597   -4.5615   -1.1818 C   0  0  0  0  0  0  0  0  0  0  0  0
    3.3260   -5.0325    0.1134 C   0  0  1  0  0  0  0  0  0  0  0  0
    4.7297   -5.6262    0.0860 C   0  0  0  0  0  0  0  0  0  0  0  0
    4.6873   -6.3745    1.3817 C   0  0  0  0  0  0  0  0  0  0  0  0
    4.4413   -7.6110    1.6076 O   0  0  0  0  0  0  0  0  0  0  0  0
    4.4371   -5.4598    2.4328 C   0  0  0  0  0  0  0  0  0  0  0  0
    2.6645   -5.1531    2.1327 C   0  0  0  0  0  0  0  0  0  0  0  0
    2.9600   -3.9387    1.3822 C   0  0  2  0  0  0  0  0  0  0  0  0
    3.2421   -3.7232    3.2571 C   0  0  0  0  0  0  0  0  0  0  0  0
    3.4388   -0.2928   -1.0303 C   0  0  2  0  0  0  0  0  0  0  0  0
    4.3530    1.2643   -1.2390 C   0  0  0  0  0  0  0  0  0  0  0  0
    4.3398    1.7142    0.1544 C   0  0  0  0  0  0  0  0  0  0  0  0
    3.0036    1.6861    0.3507 C   0  0  0  0  0  0  0  0  0  0  0  0
    0.6344   -0.8509    0.3115 H   0  0  0  0  0  0  0  0  0  0  0  0
    0.6949    0.3188   -0.9931 H   0  0  0  0  0  0  0  0  0  0  0  0
    0.5394    0.8380    0.7063 H   0  0  0  0  0  0  0  0  0  0  0  0
    2.6907    0.4809    2.3580 H   0  0  0  0  0  0  0  0  0  0  0  0
    4.1271   -0.2281    1.6526 H   0  0  0  0  0  0  0  0  0  0  0  0
    1.5542   -1.7167    1.9609 H   0  0  0  0  0  0  0  0  0  0  0  0
    3.0066   -1.6294    2.9414 H   0  0  0  0  0  0  0  0  0  0  0  0
    4.4450   -2.4069    1.0767 H   0  0  0  0  0  0  0  0  0  0  0  0
    2.0011   -1.9987   -0.6117 H   0  0  0  0  0  0  0  0  0  0  0  0
    4.3790   -3.3139   -1.7163 H   0  0  0  0  0  0  0  0  0  0  0  0
    2.8137   -2.9763   -2.5225 H   0  0  0  0  0  0  0  0  0  0  0  0
    3.0251   -5.3374   -1.9186 H   0  0  0  0  0  0  0  0  0  0  0  0
    1.6571   -4.6179   -1.1084 H   0  0  0  0  0  0  0  0  0  0  0  0
    2.7585   -5.9963    0.1456 H   0  0  0  0  0  0  0  0  0  0  0  0
    5.3920   -4.7566    0.0916 H   0  0  0  0  0  0  0  0  0  0  0  0
    5.0092   -6.2941   -0.7255 H   0  0  0  0  0  0  0  0  0  0  0  0
    5.1735   -4.6386    2.1152 H   0  0  0  0  0  0  0  0  0  0  0  0
    4.8492   -5.7473    3.4043 H   0  0  0  0  0  0  0  0  0  0  0  0
    1.7745   -4.8107    2.7296 H   0  0  0  0  0  0  0  0  0  0  0  0
    1.9826   -5.8005    1.5670 H   0  0  0  0  0  0  0  0  0  0  0  0
    2.4119   -3.1608    3.7081 H   0  0  0  0  0  0  0  0  0  0  0  0
    4.2444   -3.4108    3.5533 H   0  0  0  0  0  0  0  0  0  0  0  0
    3.0769   -4.6470    3.9452 H   0  0  0  0  0  0  0  0  0  0  0  0
    3.2373   -0.4224   -2.1043 H   0  0  0  0  0  0  0  0  0  0  0  0
    3.8110    2.1707   -1.6889 H   0  0  0  0  0  0  0  0  0  0  0  0
    5.3814    1.4368   -1.5962 H   0  0  0  0  0  0  0  0  0  0  0  0
    5.0845    1.0149    0.5684 H   0  0  0  0  0  0  0  0  0  0  0  0
    2.3548    2.3268   -0.2539 H   0  0  0  0  0  0  0  0  0  0  0  0
  1 21  1  0  0  0  0
  1 22  1  0  0  0  0
  1 23  1  0  0  0  0
  2  3  1  0  0  0  0
  2 17  1  0  0  0  0
  2 20  1  0  0  0  0
  2  1  1  1  0  0  0
  3  4  1  0  0  0  0
  3 24  1  0  0  0  0
  3 25  1  0  0  0  0
  4  5  1  0  0  0  0
  4 26  1  0  0  0  0
  4 27  1  0  0  0  0
  5  6  1  0  0  0  0
  5 15  1  0  0  0  0
  5 28  1  6  0  0  0
  6  7  1  0  0  0  0
  6 17  1  0  0  0  0
  6 29  1  6  0  0  0
  7  8  1  0  0  0  0
  7 30  1  0  0  0  0
  7 31  1  0  0  0  0
  8  9  1  0  0  0  0
  8 32  1  0  0  0  0
  8 33  1  0  0  0  0
  9 10  1  0  0  0  0
  9 15  1  0  0  0  0
  9 34  1  1  0  0  0
 10 11  1  0  0  0  0
 10 35  1  0  0  0  0
 10 36  1  0  0  0  0
 11 13  1  0  0  0  0
 11 12  2  0  0  0  0
 13 14  1  0  0  0  0
 13 37  1  0  0  0  0
 13 38  1  0  0  0  0
 14 15  1  0  0  0  0
 14 39  1  0  0  0  0
 14 40  1  0  0  0  0
 15 16  1  1  0  0  0
 16 41  1  0  0  0  0
 16 42  1  0  0  0  0
 16 43  1  0  0  0  0
 17 18  1  0  0  0  0
 17 44  1  6  0  0  0
 18 19  1  0  0  0  0
 18 45  1  0  0  0  0
 18 46  1  0  0  0  0
 19 20  2  0  0  0  0
 19 47  1  0  0  0  0
 20 48  1  0  0  0  0
M  END
$$$$
