
 OpenBabel07222214433D

 20 20  0  0  0  0  0  0  0  0999 V2000
    1.3934   -0.2019    0.0141 C   0  0  0  0  0  0  0  0  0  0  0  0
    0.8625    1.0859    0.0075 C   0  0  0  0  0  0  0  0  0  0  0  0
   -0.5242    1.2766    0.0121 C   0  0  0  0  0  0  0  0  0  0  0  0
   -1.3977    0.1797   -0.0361 C   0  0  0  0  0  0  0  0  0  0  0  0
   -0.8410   -1.1074   -0.0070 C   0  0  0  0  0  0  0  0  0  0  0  0
    0.5404   -1.2990    0.0203 C   0  0  0  0  0  0  0  0  0  0  0  0
   -2.8478    0.4160   -0.1677 C   0  0  0  0  0  0  0  0  0  0  0  0
   -3.7714   -0.5547   -0.3121 C   0  0  0  0  0  0  0  0  0  0  0  0
   -5.2272   -0.3003   -0.4979 C   0  0  0  0  0  0  0  0  0  0  0  0
   -5.8957   -1.5520   -0.5889 O   0  0  0  0  0  0  0  0  0  0  0  0
    2.4690   -0.3531    0.0187 H   0  0  0  0  0  0  0  0  0  0  0  0
    1.5293    1.9442   -0.0128 H   0  0  0  0  0  0  0  0  0  0  0  0
   -0.9088    2.2938    0.0396 H   0  0  0  0  0  0  0  0  0  0  0  0
   -1.4666   -1.9938   -0.0138 H   0  0  0  0  0  0  0  0  0  0  0  0
    0.9410   -2.3088    0.0312 H   0  0  0  0  0  0  0  0  0  0  0  0
   -3.1655    1.4561   -0.1875 H   0  0  0  0  0  0  0  0  0  0  0  0
   -3.4824   -1.5980   -0.3005 H   0  0  0  0  0  0  0  0  0  0  0  0
   -5.4206    0.2575   -1.4190 H   0  0  0  0  0  0  0  0  0  0  0  0
   -5.6411    0.2407    0.3566 H   0  0  0  0  0  0  0  0  0  0  0  0
   -5.5468   -2.0060   -1.3747 H   0  0  0  0  0  0  0  0  0  0  0  0
  1  2  2  0  0  0  0
  1  6  1  0  0  0  0
  1 11  1  0  0  0  0
  2  3  1  0  0  0  0
  2 12  1  0  0  0  0
  3  4  2  0  0  0  0
  3 13  1  0  0  0  0
  4  5  1  0  0  0  0
  4  7  1  0  0  0  0
  5  6  2  0  0  0  0
  5 14  1  0  0  0  0
  6 15  1  0  0  0  0
  7  8  2  0  0  0  0
  7 16  1  0  0  0  0
  8  9  1  0  0  0  0
  8 17  1  0  0  0  0
  9 10  1  0  0  0  0
  9 18  1  0  0  0  0
  9 19  1  0  0  0  0
 10 20  1  0  0  0  0
M  END
$$$$
