
 OpenBabel07202215583D

 22 22  0  0  0  0  0  0  0  0999 V2000
    2.5163    0.0016   -0.0127 C   0  0  0  0  0  0  0  0  0  0  0  0
    1.0206   -0.0066    0.0028 C   0  0  0  0  0  0  0  0  0  0  0  0
    0.3066   -1.2013    0.0054 C   0  0  0  0  0  0  0  0  0  0  0  0
   -1.0926   -1.1898    0.0005 C   0  0  0  0  0  0  0  0  0  0  0  0
   -1.8313    0.0084   -0.0096 C   0  0  0  0  0  0  0  0  0  0  0  0
   -1.0850    1.1985    0.0011 C   0  0  0  0  0  0  0  0  0  0  0  0
    0.3149    1.1945    0.0055 C   0  0  0  0  0  0  0  0  0  0  0  0
   -3.3255    0.0086   -0.0384 C   0  0  0  0  0  0  0  0  0  0  0  0
   -4.0463   -1.1318   -0.0575 C   0  0  0  0  0  0  0  0  0  0  0  0
   -4.1023    1.3032   -0.0582 C   0  0  0  0  0  0  0  0  0  0  0  0
    2.9206   -1.0155    0.0007 H   0  0  0  0  0  0  0  0  0  0  0  0
    2.8977    0.5298    0.8665 H   0  0  0  0  0  0  0  0  0  0  0  0
    2.8759    0.4971   -0.9199 H   0  0  0  0  0  0  0  0  0  0  0  0
    0.8246   -2.1573    0.0068 H   0  0  0  0  0  0  0  0  0  0  0  0
   -1.5793   -2.1596    0.0007 H   0  0  0  0  0  0  0  0  0  0  0  0
   -1.5545    2.1752    0.0026 H   0  0  0  0  0  0  0  0  0  0  0  0
    0.8455    2.1441    0.0063 H   0  0  0  0  0  0  0  0  0  0  0  0
   -3.6161   -2.1245   -0.0514 H   0  0  0  0  0  0  0  0  0  0  0  0
   -5.1315   -1.1070   -0.0832 H   0  0  0  0  0  0  0  0  0  0  0  0
   -3.4996    2.2102   -0.0478 H   0  0  0  0  0  0  0  0  0  0  0  0
   -4.7585    1.3626    0.8174 H   0  0  0  0  0  0  0  0  0  0  0  0
   -4.7195    1.3587   -0.9621 H   0  0  0  0  0  0  0  0  0  0  0  0
  1  2  1  0  0  0  0
  1 11  1  0  0  0  0
  1 12  1  0  0  0  0
  1 13  1  0  0  0  0
  2  3  2  0  0  0  0
  2  7  1  0  0  0  0
  3  4  1  0  0  0  0
  3 14  1  0  0  0  0
  4  5  2  0  0  0  0
  4 15  1  0  0  0  0
  5  6  1  0  0  0  0
  5  8  1  0  0  0  0
  6  7  2  0  0  0  0
  6 16  1  0  0  0  0
  7 17  1  0  0  0  0
  8  9  2  0  0  0  0
  8 10  1  0  0  0  0
  9 18  1  0  0  0  0
  9 19  1  0  0  0  0
 10 20  1  0  0  0  0
 10 21  1  0  0  0  0
 10 22  1  0  0  0  0
M  END
$$$$
