
 OpenBabel07202215583D

 18 18  0  0  0  0  0  0  0  0999 V2000
    0.9724   -0.0858   -0.0192 C   0  0  0  0  0  0  0  0  0  0  0  0
    2.4935   -0.0587   -0.0222 C   0  0  0  0  0  0  0  0  0  0  0  0
    2.9995    0.8204   -1.1379 C   0  0  0  0  0  0  0  0  0  0  0  0
    3.6678    0.3765   -2.2236 C   0  0  0  0  0  0  0  0  0  0  0  0
    4.0149    1.3643   -3.2923 C   0  0  0  0  0  0  0  0  0  0  0  0
    4.5799    1.0456   -4.3352 O   0  0  0  0  0  0  0  0  0  0  0  0
    3.6277    2.7652   -3.0643 C   0  0  0  0  0  0  0  0  0  0  0  0
    2.9835    3.0659   -1.9367 C   0  0  0  0  0  0  0  0  0  0  0  0
    2.6636    2.1613   -0.9573 O   0  0  0  0  0  0  0  0  0  0  0  0
    4.0257   -0.9385   -2.4484 O   0  0  0  0  0  0  0  0  0  0  0  0
    0.6064   -0.7820    0.7407 H   0  0  0  0  0  0  0  0  0  0  0  0
    0.5868   -0.4108   -0.9922 H   0  0  0  0  0  0  0  0  0  0  0  0
    0.5594    0.9046    0.1979 H   0  0  0  0  0  0  0  0  0  0  0  0
    2.8454   -1.0896   -0.1120 H   0  0  0  0  0  0  0  0  0  0  0  0
    2.8715    0.3019    0.9414 H   0  0  0  0  0  0  0  0  0  0  0  0
    3.8732    3.4893   -3.8275 H   0  0  0  0  0  0  0  0  0  0  0  0
    2.6445    4.0619   -1.6854 H   0  0  0  0  0  0  0  0  0  0  0  0
    3.7924   -1.4887   -1.6890 H   0  0  0  0  0  0  0  0  0  0  0  0
  1  2  1  0  0  0  0
  1 11  1  0  0  0  0
  1 12  1  0  0  0  0
  1 13  1  0  0  0  0
  2  3  1  0  0  0  0
  2 14  1  0  0  0  0
  2 15  1  0  0  0  0
  3  4  2  0  0  0  0
  3  9  1  0  0  0  0
  4  5  1  0  0  0  0
  4 10  1  0  0  0  0
  5  6  2  0  0  0  0
  5  7  1  0  0  0  0
  7  8  2  0  0  0  0
  7 16  1  0  0  0  0
  8  9  1  0  0  0  0
  8 17  1  0  0  0  0
 10 18  1  0  0  0  0
M  END
$$$$
