
 OpenBabel07222214443D

 26 26  0  0  0  0  0  0  0  0999 V2000
    1.0275   -0.0960   -0.0234 C   0  0  0  0  0  0  0  0  0  0  0  0
    2.5483   -0.0904   -0.0640 C   0  0  0  0  0  0  0  0  0  0  0  0
    3.0063   -0.1732   -1.4335 O   0  0  0  0  0  0  0  0  0  0  0  0
    4.3597   -0.2157   -1.5618 C   0  0  0  0  0  0  0  0  0  0  0  0
    5.1599   -0.2024   -0.6329 O   0  0  0  0  0  0  0  0  0  0  0  0
    4.8039   -0.3665   -2.9783 C   0  0  0  0  0  0  0  0  0  0  0  0
    4.2708    0.3746   -4.0488 C   0  0  0  0  0  0  0  0  0  0  0  0
    4.7966    0.2577   -5.3660 C   0  0  0  0  0  0  0  0  0  0  0  0
    5.8650   -0.6258   -5.5781 C   0  0  0  0  0  0  0  0  0  0  0  0
    6.3830   -1.3654   -4.5135 C   0  0  0  0  0  0  0  0  0  0  0  0
    5.8702   -1.2350   -3.2251 C   0  0  0  0  0  0  0  0  0  0  0  0
    6.5332   -0.8999   -6.7369 O   0  0  0  0  0  0  0  0  0  0  0  0
    4.1591    1.0648   -6.2755 O   0  0  0  0  0  0  0  0  0  0  0  0
    4.5614    1.0341   -7.6368 C   0  0  0  0  0  0  0  0  0  0  0  0
    0.6601   -0.0048    1.0053 H   0  0  0  0  0  0  0  0  0  0  0  0
    0.6283   -1.0221   -0.4494 H   0  0  0  0  0  0  0  0  0  0  0  0
    0.6204    0.7329   -0.6104 H   0  0  0  0  0  0  0  0  0  0  0  0
    2.9230   -0.9425    0.5179 H   0  0  0  0  0  0  0  0  0  0  0  0
    2.9140    0.8397    0.3867 H   0  0  0  0  0  0  0  0  0  0  0  0
    3.4575    1.0727   -3.8566 H   0  0  0  0  0  0  0  0  0  0  0  0
    7.2110   -2.0452   -4.7037 H   0  0  0  0  0  0  0  0  0  0  0  0
    6.3188   -1.8130   -2.4208 H   0  0  0  0  0  0  0  0  0  0  0  0
    6.2498   -0.3626   -7.4796 H   0  0  0  0  0  0  0  0  0  0  0  0
    3.9299    1.7054   -8.2254 H   0  0  0  0  0  0  0  0  0  0  0  0
    4.4320    0.0309   -8.0596 H   0  0  0  0  0  0  0  0  0  0  0  0
    5.5881    1.4034   -7.7431 H   0  0  0  0  0  0  0  0  0  0  0  0
  1  2  1  0  0  0  0
  1 15  1  0  0  0  0
  1 16  1  0  0  0  0
  1 17  1  0  0  0  0
  2  3  1  0  0  0  0
  2 18  1  0  0  0  0
  2 19  1  0  0  0  0
  3  4  1  0  0  0  0
  4  5  2  0  0  0  0
  4  6  1  0  0  0  0
  6  7  2  0  0  0  0
  6 11  1  0  0  0  0
  7  8  1  0  0  0  0
  7 20  1  0  0  0  0
  8  9  2  0  0  0  0
  8 13  1  0  0  0  0
  9 10  1  0  0  0  0
  9 12  1  0  0  0  0
 10 11  2  0  0  0  0
 10 21  1  0  0  0  0
 11 22  1  0  0  0  0
 12 23  1  0  0  0  0
 13 14  1  0  0  0  0
 14 24  1  0  0  0  0
 14 25  1  0  0  0  0
 14 26  1  0  0  0  0
M  END
$$$$
