
 OpenBabel07222214433D

 29 28  0  0  0  0  0  0  0  0999 V2000
    1.0378    0.0735   -0.0349 C   0  0  0  0  0  0  0  0  0  0  0  0
    2.5538    0.0714   -0.0386 C   0  0  0  0  0  0  0  0  0  0  0  0
    3.0842   -0.6411   -1.2738 C   0  0  0  0  0  0  0  0  0  0  0  0
    4.6074   -0.6410   -1.2736 C   0  0  0  0  0  0  0  0  0  0  0  0
    5.1223   -1.3548   -2.5110 C   0  0  0  0  0  0  0  0  0  0  0  0
    6.6200   -1.3833   -2.5604 C   0  0  0  0  0  0  0  0  0  0  0  0
    7.2889   -1.9639   -3.5671 C   0  0  0  0  0  0  0  0  0  0  0  0
    6.5881   -2.6278   -4.7180 C   0  0  0  0  0  0  0  0  0  0  0  0
    7.5670   -3.2074   -5.7227 C   0  0  0  0  0  0  0  0  0  0  0  0
    6.8290   -3.8617   -6.8570 C   0  0  0  0  0  0  0  0  0  0  0  0
    7.4072   -4.4038   -7.7968 O   0  0  0  0  0  0  0  0  0  0  0  0
    0.6629    0.5865    0.8545 H   0  0  0  0  0  0  0  0  0  0  0  0
    0.6492   -0.9499   -0.0336 H   0  0  0  0  0  0  0  0  0  0  0  0
    0.6492    0.5871   -0.9201 H   0  0  0  0  0  0  0  0  0  0  0  0
    2.9235   -0.4269    0.8651 H   0  0  0  0  0  0  0  0  0  0  0  0
    2.9235    1.1031   -0.0175 H   0  0  0  0  0  0  0  0  0  0  0  0
    2.7128   -0.1454   -2.1797 H   0  0  0  0  0  0  0  0  0  0  0  0
    2.7128   -1.6735   -1.2982 H   0  0  0  0  0  0  0  0  0  0  0  0
    4.9803   -1.1413   -0.3715 H   0  0  0  0  0  0  0  0  0  0  0  0
    4.9803    0.3904   -1.2550 H   0  0  0  0  0  0  0  0  0  0  0  0
    4.7381   -0.8454   -3.4038 H   0  0  0  0  0  0  0  0  0  0  0  0
    4.7381   -2.3826   -2.5171 H   0  0  0  0  0  0  0  0  0  0  0  0
    7.1770   -0.9161   -1.7505 H   0  0  0  0  0  0  0  0  0  0  0  0
    8.3768   -1.9530   -3.5481 H   0  0  0  0  0  0  0  0  0  0  0  0
    5.9407   -1.8978   -5.2216 H   0  0  0  0  0  0  0  0  0  0  0  0
    5.9407   -3.4293   -4.3383 H   0  0  0  0  0  0  0  0  0  0  0  0
    8.1983   -3.9617   -5.2421 H   0  0  0  0  0  0  0  0  0  0  0  0
    8.1983   -2.4137   -6.1351 H   0  0  0  0  0  0  0  0  0  0  0  0
    5.7266   -3.8387   -6.8172 H   0  0  0  0  0  0  0  0  0  0  0  0
  1  2  1  0  0  0  0
  1 12  1  0  0  0  0
  1 13  1  0  0  0  0
  1 14  1  0  0  0  0
  2  3  1  0  0  0  0
  2 15  1  0  0  0  0
  2 16  1  0  0  0  0
  3  4  1  0  0  0  0
  3 17  1  0  0  0  0
  3 18  1  0  0  0  0
  4  5  1  0  0  0  0
  4 19  1  0  0  0  0
  4 20  1  0  0  0  0
  5  6  1  0  0  0  0
  5 21  1  0  0  0  0
  5 22  1  0  0  0  0
  6  7  2  0  0  0  0
  6 23  1  0  0  0  0
  7  8  1  0  0  0  0
  7 24  1  0  0  0  0
  8  9  1  0  0  0  0
  8 25  1  0  0  0  0
  8 26  1  0  0  0  0
  9 10  1  0  0  0  0
  9 27  1  0  0  0  0
  9 28  1  0  0  0  0
 10 11  2  0  0  0  0
 10 29  1  0  0  0  0
M  END
$$$$
