
 OpenBabel07202215583D

 23 22  0  0  0  0  0  0  0  0999 V2000
    0.9392    0.0728    0.0769 C   0  0  0  0  0  0  0  0  0  0  0  0
    2.4558    0.0690    0.0750 C   0  0  0  0  0  0  0  0  0  0  0  0
    2.9833   -1.2051   -0.5675 C   0  0  0  0  0  0  0  0  0  0  0  0
    4.5069   -1.2164   -0.5733 C   0  0  0  0  0  0  0  0  0  0  0  0
    5.0017   -2.5004   -1.2209 C   0  0  0  0  0  0  0  0  0  0  0  0
    6.5190   -2.5699   -1.2559 C   0  0  0  0  0  0  0  0  0  0  0  0
    7.0931   -3.8190   -1.8858 C   0  0  0  0  0  0  0  0  0  0  0  0
    6.2216   -4.7361   -2.3484 O   0  0  0  0  0  0  0  0  0  0  0  0
    8.3025   -3.9980   -1.9761 O   0  0  0  0  0  0  0  0  0  0  0  0
    0.5636    0.9893    0.5391 H   0  0  0  0  0  0  0  0  0  0  0  0
    0.5506   -0.7825    0.6390 H   0  0  0  0  0  0  0  0  0  0  0  0
    0.5506    0.0163   -0.9450 H   0  0  0  0  0  0  0  0  0  0  0  0
    2.8254    0.1474    1.1039 H   0  0  0  0  0  0  0  0  0  0  0  0
    2.8254    0.9430   -0.4735 H   0  0  0  0  0  0  0  0  0  0  0  0
    2.6091   -1.2859   -1.5961 H   0  0  0  0  0  0  0  0  0  0  0  0
    2.6091   -2.0802   -0.0211 H   0  0  0  0  0  0  0  0  0  0  0  0
    4.8852   -1.1440    0.4534 H   0  0  0  0  0  0  0  0  0  0  0  0
    4.8852   -0.3478   -1.1253 H   0  0  0  0  0  0  0  0  0  0  0  0
    4.6070   -2.5612   -2.2427 H   0  0  0  0  0  0  0  0  0  0  0  0
    4.6070   -3.3582   -0.6623 H   0  0  0  0  0  0  0  0  0  0  0  0
    6.9061   -2.5100   -0.2314 H   0  0  0  0  0  0  0  0  0  0  0  0
    6.9061   -1.7105   -1.8167 H   0  0  0  0  0  0  0  0  0  0  0  0
    5.2717   -4.5470   -2.2530 H   0  0  0  0  0  0  0  0  0  0  0  0
  1  2  1  0  0  0  0
  1 10  1  0  0  0  0
  1 11  1  0  0  0  0
  1 12  1  0  0  0  0
  2  3  1  0  0  0  0
  2 13  1  0  0  0  0
  2 14  1  0  0  0  0
  3  4  1  0  0  0  0
  3 15  1  0  0  0  0
  3 16  1  0  0  0  0
  4  5  1  0  0  0  0
  4 17  1  0  0  0  0
  4 18  1  0  0  0  0
  5  6  1  0  0  0  0
  5 19  1  0  0  0  0
  5 20  1  0  0  0  0
  6  7  1  0  0  0  0
  6 21  1  0  0  0  0
  6 22  1  0  0  0  0
  7  8  1  0  0  0  0
  7  9  2  0  0  0  0
  8 23  1  0  0  0  0
M  END
$$$$
