
 OpenBabel07122215493D

 38 37  0  0  0  0  0  0  0  0999 V2000
    1.0325    0.0772   -0.0441 C   0  0  0  0  0  0  0  0  0  0  0  0
    2.5489    0.0791   -0.0366 C   0  0  0  0  0  0  0  0  0  0  0  0
    3.0734    0.4313    1.3488 C   0  0  0  0  0  0  0  0  0  0  0  0
    4.5949    0.4344    1.3611 C   0  0  0  0  0  0  0  0  0  0  0  0
    5.1098    0.7873    2.7494 C   0  0  0  0  0  0  0  0  0  0  0  0
    6.6312    0.7919    2.7673 C   0  0  0  0  0  0  0  0  0  0  0  0
    7.1487    1.1456    4.1587 C   0  0  0  0  0  0  0  0  0  0  0  0
    8.6718    1.1487    4.1707 C   0  0  0  0  0  0  0  0  0  0  0  0
    9.2469    1.4981    5.5455 C   0  0  0  0  0  0  0  0  0  0  0  0
   10.7613    1.4849    5.4934 C   0  0  0  0  0  0  0  0  0  0  0  0
   11.4165    1.2295    4.4887 O   0  0  0  0  0  0  0  0  0  0  0  0
   11.3059    1.7934    6.7069 O   0  0  0  0  0  0  0  0  0  0  0  0
   12.7448    1.7916    6.7001 C   0  0  0  0  0  0  0  0  0  0  0  0
   13.2699    2.1426    8.0807 C   0  0  0  0  0  0  0  0  0  0  0  0
    0.6584   -0.1758   -1.0396 H   0  0  0  0  0  0  0  0  0  0  0  0
    0.6432    1.0626    0.2314 H   0  0  0  0  0  0  0  0  0  0  0  0
    0.6432   -0.6569    0.6685 H   0  0  0  0  0  0  0  0  0  0  0  0
    2.9194    0.8034   -0.7714 H   0  0  0  0  0  0  0  0  0  0  0  0
    2.9194   -0.9082   -0.3363 H   0  0  0  0  0  0  0  0  0  0  0  0
    2.6997   -0.2926    2.0836 H   0  0  0  0  0  0  0  0  0  0  0  0
    2.6997    1.4182    1.6488 H   0  0  0  0  0  0  0  0  0  0  0  0
    4.9715    1.1595    0.6293 H   0  0  0  0  0  0  0  0  0  0  0  0
    4.9715   -0.5522    1.0644 H   0  0  0  0  0  0  0  0  0  0  0  0
    4.7320    0.0620    3.4804 H   0  0  0  0  0  0  0  0  0  0  0  0
    4.7320    1.7737    3.0453 H   0  0  0  0  0  0  0  0  0  0  0  0
    7.0063    1.5156    2.0328 H   0  0  0  0  0  0  0  0  0  0  0  0
    7.0063   -0.1948    2.4676 H   0  0  0  0  0  0  0  0  0  0  0  0
    6.7695    0.4189    4.8869 H   0  0  0  0  0  0  0  0  0  0  0  0
    6.7695    2.1318    4.4515 H   0  0  0  0  0  0  0  0  0  0  0  0
    9.0374    1.8673    3.4259 H   0  0  0  0  0  0  0  0  0  0  0  0
    9.0374    0.1615    3.8595 H   0  0  0  0  0  0  0  0  0  0  0  0
    8.9047    0.7650    6.2843 H   0  0  0  0  0  0  0  0  0  0  0  0
    8.9047    2.4950    5.8445 H   0  0  0  0  0  0  0  0  0  0  0  0
   13.1102    2.5311    5.9777 H   0  0  0  0  0  0  0  0  0  0  0  0
   13.1102    0.7970    6.4186 H   0  0  0  0  0  0  0  0  0  0  0  0
   12.9179    3.1310    8.3922 H   0  0  0  0  0  0  0  0  0  0  0  0
   14.3651    2.1448    8.0893 H   0  0  0  0  0  0  0  0  0  0  0  0
   12.9179    1.4229    8.8264 H   0  0  0  0  0  0  0  0  0  0  0  0
  1  2  1  0  0  0  0
  1 15  1  0  0  0  0
  1 16  1  0  0  0  0
  1 17  1  0  0  0  0
  2  3  1  0  0  0  0
  2 18  1  0  0  0  0
  2 19  1  0  0  0  0
  3  4  1  0  0  0  0
  3 20  1  0  0  0  0
  3 21  1  0  0  0  0
  4  5  1  0  0  0  0
  4 22  1  0  0  0  0
  4 23  1  0  0  0  0
  5  6  1  0  0  0  0
  5 24  1  0  0  0  0
  5 25  1  0  0  0  0
  6  7  1  0  0  0  0
  6 26  1  0  0  0  0
  6 27  1  0  0  0  0
  7  8  1  0  0  0  0
  7 28  1  0  0  0  0
  7 29  1  0  0  0  0
  8  9  1  0  0  0  0
  8 30  1  0  0  0  0
  8 31  1  0  0  0  0
  9 10  1  0  0  0  0
  9 32  1  0  0  0  0
  9 33  1  0  0  0  0
 10 11  2  0  0  0  0
 10 12  1  0  0  0  0
 12 13  1  0  0  0  0
 13 14  1  0  0  0  0
 13 34  1  0  0  0  0
 13 35  1  0  0  0  0
 14 36  1  0  0  0  0
 14 37  1  0  0  0  0
 14 38  1  0  0  0  0
M  END
$$$$
