
 OpenBabel07222214443D

 30 31  0  0  0  0  0  0  0  0999 V2000
    1.0223   -0.0080   -0.0204 C   0  0  0  0  0  0  0  0  0  0  0  0
    2.4484   -0.0558   -0.0412 O   0  0  0  0  0  0  0  0  0  0  0  0
    3.0384   -0.8399   -1.0070 C   0  0  0  0  0  0  0  0  0  0  0  0
    2.6154   -0.9567   -2.3372 C   0  0  0  0  0  0  0  0  0  0  0  0
    3.3728   -1.7304   -3.2226 C   0  0  0  0  0  0  0  0  0  0  0  0
    4.5417   -2.3885   -2.8141 C   0  0  0  0  0  0  0  0  0  0  0  0
    5.2514   -3.2427   -3.8338 C   0  0  0  0  0  0  0  0  0  0  0  0
    6.6645   -3.6331   -3.4257 C   0  0  0  0  0  0  0  0  0  0  0  0
    6.6635   -4.1209   -1.9831 C   0  0  0  0  0  0  0  0  0  0  0  0
    6.2241   -3.0013   -1.0284 C   0  0  0  0  0  0  0  0  0  0  0  0
    4.9652   -2.2943   -1.4845 C   0  0  0  0  0  0  0  0  0  0  0  0
    4.2210   -1.4917   -0.5949 C   0  0  0  0  0  0  0  0  0  0  0  0
    1.4990   -0.2749   -2.7333 O   0  0  0  0  0  0  0  0  0  0  0  0
    1.0382   -0.4433   -4.0646 C   0  0  0  0  0  0  0  0  0  0  0  0
    0.7238    0.6777    0.7795 H   0  0  0  0  0  0  0  0  0  0  0  0
    0.6036   -0.9942    0.2026 H   0  0  0  0  0  0  0  0  0  0  0  0
    0.5724    0.4099   -0.9217 H   0  0  0  0  0  0  0  0  0  0  0  0
    3.0807   -1.8376   -4.2599 H   0  0  0  0  0  0  0  0  0  0  0  0
    5.2892   -2.7212   -4.7974 H   0  0  0  0  0  0  0  0  0  0  0  0
    4.6532   -4.1520   -3.9708 H   0  0  0  0  0  0  0  0  0  0  0  0
    7.3442   -2.7787   -3.5352 H   0  0  0  0  0  0  0  0  0  0  0  0
    7.0272   -4.4199   -4.0977 H   0  0  0  0  0  0  0  0  0  0  0  0
    7.6603   -4.4844   -1.7098 H   0  0  0  0  0  0  0  0  0  0  0  0
    5.9769   -4.9730   -1.8948 H   0  0  0  0  0  0  0  0  0  0  0  0
    7.0310   -2.2622   -0.9475 H   0  0  0  0  0  0  0  0  0  0  0  0
    6.0707   -3.4370   -0.0343 H   0  0  0  0  0  0  0  0  0  0  0  0
    4.5523   -1.3743    0.4348 H   0  0  0  0  0  0  0  0  0  0  0  0
    0.1031    0.1148   -4.1642 H   0  0  0  0  0  0  0  0  0  0  0  0
    0.8211   -1.4943   -4.2835 H   0  0  0  0  0  0  0  0  0  0  0  0
    1.7561   -0.0254   -4.7771 H   0  0  0  0  0  0  0  0  0  0  0  0
  1  2  1  0  0  0  0
  1 15  1  0  0  0  0
  1 16  1  0  0  0  0
  1 17  1  0  0  0  0
  2  3  1  0  0  0  0
  3  4  2  0  0  0  0
  3 12  1  0  0  0  0
  4  5  1  0  0  0  0
  4 13  1  0  0  0  0
  5  6  2  0  0  0  0
  5 18  1  0  0  0  0
  6  7  1  0  0  0  0
  6 11  1  0  0  0  0
  7  8  1  0  0  0  0
  7 19  1  0  0  0  0
  7 20  1  0  0  0  0
  8  9  1  0  0  0  0
  8 21  1  0  0  0  0
  8 22  1  0  0  0  0
  9 10  1  0  0  0  0
  9 23  1  0  0  0  0
  9 24  1  0  0  0  0
 10 11  1  0  0  0  0
 10 25  1  0  0  0  0
 10 26  1  0  0  0  0
 11 12  2  0  0  0  0
 12 27  1  0  0  0  0
 13 14  1  0  0  0  0
 14 28  1  0  0  0  0
 14 29  1  0  0  0  0
 14 30  1  0  0  0  0
M  END
$$$$
