
 OpenBabel07222214433D

 37 37  0  0  0  0  0  0  0  0999 V2000
    0.9259   -0.0178    0.0872 C   0  0  0  0  0  0  0  0  0  0  0  0
    2.4527   -0.0141    0.1154 C   0  0  0  0  0  0  0  0  0  0  0  0
    2.9469    0.0568    1.5624 C   0  0  0  0  0  0  0  0  0  0  0  0
    2.9183   -1.2242   -0.4836 O   0  0  0  0  0  0  0  0  0  0  0  0
    2.9820    1.1660   -0.7115 C   0  0  0  0  0  0  0  0  0  0  0  0
    4.5075    1.2054   -0.7464 C   0  0  0  0  0  0  0  0  0  0  0  0
    5.0019    2.3911   -1.5572 C   0  0  0  0  0  0  0  0  0  0  0  0
    6.5039    2.3914   -1.5721 C   0  0  0  0  0  0  0  0  0  0  0  0
    7.1716    1.7312   -2.5342 C   0  0  0  0  0  0  0  0  0  0  0  0
    8.6648    1.6379   -2.5830 C   0  0  0  0  0  0  0  0  0  0  0  0
    9.3302    2.0476   -1.2640 C   0  0  0  0  0  0  0  0  0  0  0  0
    8.6932    3.3212   -0.7046 C   0  0  0  0  0  0  0  0  0  0  0  0
    7.1961    3.1273   -0.4490 C   0  0  0  0  0  0  0  0  0  0  0  0
    9.2180    0.9348   -0.2383 C   0  0  0  0  0  0  0  0  0  0  0  0
    9.6683    1.0267    0.9040 O   0  0  0  0  0  0  0  0  0  0  0  0
    0.5307   -0.8727    0.6461 H   0  0  0  0  0  0  0  0  0  0  0  0
    0.5525   -0.1123   -0.9385 H   0  0  0  0  0  0  0  0  0  0  0  0
    0.5206    0.9011    0.5231 H   0  0  0  0  0  0  0  0  0  0  0  0
    2.5675   -0.7844    2.1495 H   0  0  0  0  0  0  0  0  0  0  0  0
    2.6309    0.9922    2.0363 H   0  0  0  0  0  0  0  0  0  0  0  0
    4.0372   -0.0132    1.6268 H   0  0  0  0  0  0  0  0  0  0  0  0
    2.6007   -1.9708    0.0515 H   0  0  0  0  0  0  0  0  0  0  0  0
    2.6007    2.1107   -0.3039 H   0  0  0  0  0  0  0  0  0  0  0  0
    2.6154    1.0877   -1.7442 H   0  0  0  0  0  0  0  0  0  0  0  0
    4.8928    0.2686   -1.1697 H   0  0  0  0  0  0  0  0  0  0  0  0
    4.9124    1.2881    0.2672 H   0  0  0  0  0  0  0  0  0  0  0  0
    4.6278    3.3295   -1.1318 H   0  0  0  0  0  0  0  0  0  0  0  0
    4.6094    2.3329   -2.5792 H   0  0  0  0  0  0  0  0  0  0  0  0
    6.6187    1.2017   -3.3087 H   0  0  0  0  0  0  0  0  0  0  0  0
    9.0080    2.2914   -3.3939 H   0  0  0  0  0  0  0  0  0  0  0  0
    8.9498    0.6136   -2.8510 H   0  0  0  0  0  0  0  0  0  0  0  0
   10.3991    2.2059   -1.4473 H   0  0  0  0  0  0  0  0  0  0  0  0
    8.8339    4.1433   -1.4183 H   0  0  0  0  0  0  0  0  0  0  0  0
    9.1840    3.6246    0.2277 H   0  0  0  0  0  0  0  0  0  0  0  0
    6.7347    4.1095   -0.2972 H   0  0  0  0  0  0  0  0  0  0  0  0
    7.0556    2.5650    0.4837 H   0  0  0  0  0  0  0  0  0  0  0  0
    8.6782    0.0249   -0.5497 H   0  0  0  0  0  0  0  0  0  0  0  0
  1  2  1  0  0  0  0
  1 16  1  0  0  0  0
  1 17  1  0  0  0  0
  1 18  1  0  0  0  0
  2  3  1  0  0  0  0
  2  4  1  0  0  0  0
  2  5  1  0  0  0  0
  3 19  1  0  0  0  0
  3 20  1  0  0  0  0
  3 21  1  0  0  0  0
  4 22  1  0  0  0  0
  5  6  1  0  0  0  0
  5 23  1  0  0  0  0
  5 24  1  0  0  0  0
  6  7  1  0  0  0  0
  6 25  1  0  0  0  0
  6 26  1  0  0  0  0
  7  8  1  0  0  0  0
  7 27  1  0  0  0  0
  7 28  1  0  0  0  0
  8  9  2  0  0  0  0
  8 13  1  0  0  0  0
  9 10  1  0  0  0  0
  9 29  1  0  0  0  0
 10 11  1  0  0  0  0
 10 30  1  0  0  0  0
 10 31  1  0  0  0  0
 11 12  1  0  0  0  0
 11 14  1  0  0  0  0
 11 32  1  0  0  0  0
 12 13  1  0  0  0  0
 12 33  1  0  0  0  0
 12 34  1  0  0  0  0
 13 35  1  0  0  0  0
 13 36  1  0  0  0  0
 14 15  2  0  0  0  0
 14 37  1  0  0  0  0
M  END
$$$$
