
 OpenBabel07222214443D

 15 15  0  0  0  0  0  0  0  0999 V2000
    2.4894    0.0015   -0.0123 C   0  0  0  0  0  0  0  0  0  0  0  0
    0.9898   -0.0063    0.0012 C   0  0  0  0  0  0  0  0  0  0  0  0
    0.2757   -1.2103    0.0026 C   0  0  0  0  0  0  0  0  0  0  0  0
   -1.1204   -1.2034   -0.0009 C   0  0  0  0  0  0  0  0  0  0  0  0
   -1.8130    0.0060   -0.0054 C   0  0  0  0  0  0  0  0  0  0  0  0
   -1.1109    1.2096   -0.0004 C   0  0  0  0  0  0  0  0  0  0  0  0
    0.2850    1.2042    0.0028 C   0  0  0  0  0  0  0  0  0  0  0  0
    2.8965   -1.0149    0.0018 H   0  0  0  0  0  0  0  0  0  0  0  0
    2.8733    0.5293    0.8664 H   0  0  0  0  0  0  0  0  0  0  0  0
    2.8537    0.4964   -0.9183 H   0  0  0  0  0  0  0  0  0  0  0  0
    0.8010   -2.1625    0.0040 H   0  0  0  0  0  0  0  0  0  0  0  0
   -1.6671   -2.1426   -0.0023 H   0  0  0  0  0  0  0  0  0  0  0  0
   -2.8997    0.0103   -0.0134 H   0  0  0  0  0  0  0  0  0  0  0  0
   -1.6496    2.1534   -0.0013 H   0  0  0  0  0  0  0  0  0  0  0  0
    0.8216    2.1501    0.0037 H   0  0  0  0  0  0  0  0  0  0  0  0
  1  2  1  0  0  0  0
  1  8  1  0  0  0  0
  1  9  1  0  0  0  0
  1 10  1  0  0  0  0
  2  3  2  0  0  0  0
  2  7  1  0  0  0  0
  3  4  1  0  0  0  0
  3 11  1  0  0  0  0
  4  5  2  0  0  0  0
  4 12  1  0  0  0  0
  5  6  1  0  0  0  0
  5 13  1  0  0  0  0
  6  7  2  0  0  0  0
  6 14  1  0  0  0  0
  7 15  1  0  0  0  0
M  END
$$$$
