
 OpenBabel07202215583D

 32 32  0  0  0  0  0  0  0  0999 V2000
    1.0359    0.0574    0.0336 C   0  0  0  0  0  0  0  0  0  0  0  0
    2.5719    0.0444    0.0484 C   0  0  0  0  0  0  0  0  0  0  0  0
    3.0852    1.1711    0.9784 C   0  0  0  0  0  0  0  0  0  0  0  0
    3.0709   -1.2886    0.6374 C   0  0  0  0  0  0  0  0  0  0  0  0
    3.0853    0.2551   -1.3749 C   0  0  0  0  0  0  0  0  0  0  0  0
    3.5550   -0.7976   -2.1780 C   0  0  0  0  0  0  0  0  0  0  0  0
    4.1383   -0.5530   -3.4205 C   0  0  0  0  0  0  0  0  0  0  0  0
    4.1686    0.7432   -3.9357 C   0  0  0  0  0  0  0  0  0  0  0  0
    4.6569    0.9686   -5.3431 C   0  0  0  0  0  0  0  0  0  0  0  0
    4.5316    2.4243   -5.7772 C   0  0  0  0  0  0  0  0  0  0  0  0
    4.9747    2.6443   -7.1836 C   0  0  0  0  0  0  0  0  0  0  0  0
    4.9556    3.7625   -7.7038 O   0  0  0  0  0  0  0  0  0  0  0  0
    3.6728    1.7885   -3.1505 C   0  0  0  0  0  0  0  0  0  0  0  0
    3.1247    1.5474   -1.9040 C   0  0  0  0  0  0  0  0  0  0  0  0
    0.6341   -0.0855    1.0424 H   0  0  0  0  0  0  0  0  0  0  0  0
    0.6373   -0.7392   -0.6052 H   0  0  0  0  0  0  0  0  0  0  0  0
    0.6436    1.0082   -0.3472 H   0  0  0  0  0  0  0  0  0  0  0  0
    2.7579    1.0158    2.0105 H   0  0  0  0  0  0  0  0  0  0  0  0
    2.7168    2.1613    0.6885 H   0  0  0  0  0  0  0  0  0  0  0  0
    4.1814    1.2167    0.9685 H   0  0  0  0  0  0  0  0  0  0  0  0
    2.7408   -1.4167    1.6720 H   0  0  0  0  0  0  0  0  0  0  0  0
    4.1676   -1.3321    0.6240 H   0  0  0  0  0  0  0  0  0  0  0  0
    2.6940   -2.1506    0.0761 H   0  0  0  0  0  0  0  0  0  0  0  0
    3.4823   -1.8331   -1.8585 H   0  0  0  0  0  0  0  0  0  0  0  0
    4.5570   -1.3869   -3.9797 H   0  0  0  0  0  0  0  0  0  0  0  0
    4.0530    0.3407   -6.0122 H   0  0  0  0  0  0  0  0  0  0  0  0
    5.6967    0.6306   -5.4289 H   0  0  0  0  0  0  0  0  0  0  0  0
    5.1475    3.0625   -5.1327 H   0  0  0  0  0  0  0  0  0  0  0  0
    3.4844    2.7468   -5.7119 H   0  0  0  0  0  0  0  0  0  0  0  0
    5.3163    1.7642   -7.7455 H   0  0  0  0  0  0  0  0  0  0  0  0
    3.6873    2.8234   -3.4777 H   0  0  0  0  0  0  0  0  0  0  0  0
    2.7320    2.4022   -1.3617 H   0  0  0  0  0  0  0  0  0  0  0  0
  1  2  1  0  0  0  0
  1 15  1  0  0  0  0
  1 16  1  0  0  0  0
  1 17  1  0  0  0  0
  2  3  1  0  0  0  0
  2  4  1  0  0  0  0
  2  5  1  0  0  0  0
  3 18  1  0  0  0  0
  3 19  1  0  0  0  0
  3 20  1  0  0  0  0
  4 21  1  0  0  0  0
  4 22  1  0  0  0  0
  4 23  1  0  0  0  0
  5  6  1  0  0  0  0
  5 14  2  0  0  0  0
  6  7  2  0  0  0  0
  6 24  1  0  0  0  0
  7  8  1  0  0  0  0
  7 25  1  0  0  0  0
  8  9  1  0  0  0  0
  8 13  2  0  0  0  0
  9 10  1  0  0  0  0
  9 26  1  0  0  0  0
  9 27  1  0  0  0  0
 10 11  1  0  0  0  0
 10 28  1  0  0  0  0
 10 29  1  0  0  0  0
 11 12  2  0  0  0  0
 11 30  1  0  0  0  0
 13 14  1  0  0  0  0
 13 31  1  0  0  0  0
 14 32  1  0  0  0  0
M  END
$$$$
