
 OpenBabel07202215583D

 29 28  0  0  0  0  0  0  0  0999 V2000
    0.9115    0.0616   -0.0235 C   0  0  0  0  0  0  0  0  0  0  0  0
    2.4084    0.0586   -0.0170 C   0  0  0  0  0  0  0  0  0  0  0  0
    3.1282    1.1737   -0.7290 C   0  0  0  0  0  0  0  0  0  0  0  0
    3.0773   -0.9229    0.6167 C   0  0  0  0  0  0  0  0  0  0  0  0
    4.5701   -0.9643    0.6426 C   0  0  0  0  0  0  0  0  0  0  0  0
    5.1403   -2.1637    1.3963 C   0  0  0  0  0  0  0  0  0  0  0  0
    6.6837   -2.1798    1.3741 C   0  0  0  0  0  0  0  0  0  0  0  0
    7.2171   -2.2242   -0.0666 C   0  0  0  0  0  0  0  0  0  0  0  0
    7.1792   -1.0109    2.0295 O   0  0  0  0  0  0  0  0  0  0  0  0
    7.2124   -3.3577    2.1563 C   0  0  0  0  0  0  0  0  0  0  0  0
    8.5212   -3.6097    2.3323 C   0  0  0  0  0  0  0  0  0  0  0  0
    0.5108    0.9200   -0.5691 H   0  0  0  0  0  0  0  0  0  0  0  0
    0.5284    0.1086    1.0011 H   0  0  0  0  0  0  0  0  0  0  0  0
    0.5317   -0.8464   -0.5033 H   0  0  0  0  0  0  0  0  0  0  0  0
    2.4383    1.8886   -1.1832 H   0  0  0  0  0  0  0  0  0  0  0  0
    3.7606    0.7745   -1.5303 H   0  0  0  0  0  0  0  0  0  0  0  0
    3.7625    1.7300   -0.0294 H   0  0  0  0  0  0  0  0  0  0  0  0
    2.5334   -1.7188    1.1209 H   0  0  0  0  0  0  0  0  0  0  0  0
    4.9337   -0.0385    1.1018 H   0  0  0  0  0  0  0  0  0  0  0  0
    4.9112   -0.9893   -0.3968 H   0  0  0  0  0  0  0  0  0  0  0  0
    4.7498   -3.0907    0.9550 H   0  0  0  0  0  0  0  0  0  0  0  0
    4.7803   -2.1237    2.4338 H   0  0  0  0  0  0  0  0  0  0  0  0
    6.9289   -1.3386   -0.6403 H   0  0  0  0  0  0  0  0  0  0  0  0
    6.8523   -3.1143   -0.5917 H   0  0  0  0  0  0  0  0  0  0  0  0
    8.3112   -2.2261   -0.0955 H   0  0  0  0  0  0  0  0  0  0  0  0
    6.9287   -0.2315    1.5097 H   0  0  0  0  0  0  0  0  0  0  0  0
    6.4902   -4.0404    2.5953 H   0  0  0  0  0  0  0  0  0  0  0  0
    9.2714   -2.9388    1.9251 H   0  0  0  0  0  0  0  0  0  0  0  0
    8.8612   -4.4731    2.8885 H   0  0  0  0  0  0  0  0  0  0  0  0
  1  2  1  0  0  0  0
  1 12  1  0  0  0  0
  1 13  1  0  0  0  0
  1 14  1  0  0  0  0
  2  3  1  0  0  0  0
  2  4  2  0  0  0  0
  3 15  1  0  0  0  0
  3 16  1  0  0  0  0
  3 17  1  0  0  0  0
  4  5  1  0  0  0  0
  4 18  1  0  0  0  0
  5  6  1  0  0  0  0
  5 19  1  0  0  0  0
  5 20  1  0  0  0  0
  6  7  1  0  0  0  0
  6 21  1  0  0  0  0
  6 22  1  0  0  0  0
  7  8  1  0  0  0  0
  7  9  1  0  0  0  0
  7 10  1  0  0  0  0
  8 23  1  0  0  0  0
  8 24  1  0  0  0  0
  8 25  1  0  0  0  0
  9 26  1  0  0  0  0
 10 11  2  0  0  0  0
 10 27  1  0  0  0  0
 11 28  1  0  0  0  0
 11 29  1  0  0  0  0
M  END
$$$$
