
 OpenBabel07222214433D

 26 25  0  0  0  0  0  0  0  0999 V2000
    0.9539    0.0762   -0.0556 C   0  0  0  0  0  0  0  0  0  0  0  0
    2.4724    0.0630   -0.0678 C   0  0  0  0  0  0  0  0  0  0  0  0
    3.0009   -0.9932   -1.0399 C   0  0  0  0  0  0  0  0  0  0  0  0
    4.5264   -1.0051   -1.0508 C   0  0  0  0  0  0  0  0  0  0  0  0
    5.1034   -2.0500   -2.0125 C   0  0  0  0  0  0  0  0  0  0  0  0
    6.6191   -2.0117   -1.9772 C   0  0  0  0  0  0  0  0  0  0  0  0
    7.2749   -1.2495   -1.2757 O   0  0  0  0  0  0  0  0  0  0  0  0
    7.1638   -2.9334   -2.8255 O   0  0  0  0  0  0  0  0  0  0  0  0
    8.6032   -2.9288   -2.8213 C   0  0  0  0  0  0  0  0  0  0  0  0
    9.1287   -3.9771   -3.7861 C   0  0  0  0  0  0  0  0  0  0  0  0
    0.5836    0.8337    0.6415 H   0  0  0  0  0  0  0  0  0  0  0  0
    0.5603   -0.8969    0.2547 H   0  0  0  0  0  0  0  0  0  0  0  0
    0.5603    0.3049   -1.0510 H   0  0  0  0  0  0  0  0  0  0  0  0
    2.8416   -0.1397    0.9447 H   0  0  0  0  0  0  0  0  0  0  0  0
    2.8416    1.0552   -0.3536 H   0  0  0  0  0  0  0  0  0  0  0  0
    2.6241   -0.7844   -2.0482 H   0  0  0  0  0  0  0  0  0  0  0  0
    2.6241   -1.9808   -0.7483 H   0  0  0  0  0  0  0  0  0  0  0  0
    4.8936   -1.2012   -0.0352 H   0  0  0  0  0  0  0  0  0  0  0  0
    4.8936   -0.0093   -1.3303 H   0  0  0  0  0  0  0  0  0  0  0  0
    4.7620   -1.8402   -3.0322 H   0  0  0  0  0  0  0  0  0  0  0  0
    4.7620   -3.0489   -1.7190 H   0  0  0  0  0  0  0  0  0  0  0  0
    8.9690   -3.1537   -1.8124 H   0  0  0  0  0  0  0  0  0  0  0  0
    8.9690   -1.9421   -3.1289 H   0  0  0  0  0  0  0  0  0  0  0  0
    8.7771   -4.9753   -3.5071 H   0  0  0  0  0  0  0  0  0  0  0  0
   10.2241   -3.9836   -3.7920 H   0  0  0  0  0  0  0  0  0  0  0  0
    8.7771   -3.7817   -4.8039 H   0  0  0  0  0  0  0  0  0  0  0  0
  1  2  1  0  0  0  0
  1 11  1  0  0  0  0
  1 12  1  0  0  0  0
  1 13  1  0  0  0  0
  2  3  1  0  0  0  0
  2 14  1  0  0  0  0
  2 15  1  0  0  0  0
  3  4  1  0  0  0  0
  3 16  1  0  0  0  0
  3 17  1  0  0  0  0
  4  5  1  0  0  0  0
  4 18  1  0  0  0  0
  4 19  1  0  0  0  0
  5  6  1  0  0  0  0
  5 20  1  0  0  0  0
  5 21  1  0  0  0  0
  6  7  2  0  0  0  0
  6  8  1  0  0  0  0
  8  9  1  0  0  0  0
  9 10  1  0  0  0  0
  9 22  1  0  0  0  0
  9 23  1  0  0  0  0
 10 24  1  0  0  0  0
 10 25  1  0  0  0  0
 10 26  1  0  0  0  0
M  END
$$$$
