
 OpenBabel07122215493D

 30 29  0  0  0  0  0  0  0  0999 V2000
    1.0235   -0.1043   -0.0086 C   0  0  0  0  0  0  0  0  0  0  0  0
    2.5418   -0.0965   -0.0064 C   0  0  0  0  0  0  0  0  0  0  0  0
    3.0764    1.2769    0.3873 C   0  0  0  0  0  0  0  0  0  0  0  0
    4.6051    1.2905    0.3912 C   0  0  0  0  0  0  0  0  0  0  0  0
    5.1287    2.6686    0.7862 C   0  0  0  0  0  0  0  0  0  0  0  0
    6.6603    2.7359    0.8055 C   0  0  0  0  0  0  0  0  0  0  0  0
    7.1228    4.1250    1.2037 C   0  0  0  0  0  0  0  0  0  0  0  0
    6.3652    5.0524    1.4695 O   0  0  0  0  0  0  0  0  0  0  0  0
    8.4858    4.2165    1.2299 O   0  0  0  0  0  0  0  0  0  0  0  0
    8.9448    5.5274    1.6056 C   0  0  0  0  0  0  0  0  0  0  0  0
   10.4471    5.5661    1.6167 C   0  0  0  0  0  0  0  0  0  0  0  0
   11.1470    6.6672    1.9324 C   0  0  0  0  0  0  0  0  0  0  0  0
    0.6487   -1.0921   -0.2917 H   0  0  0  0  0  0  0  0  0  0  0  0
    0.6323    0.6287   -0.7213 H   0  0  0  0  0  0  0  0  0  0  0  0
    0.6323    0.1399    0.9842 H   0  0  0  0  0  0  0  0  0  0  0  0
    2.9091   -0.3682   -1.0028 H   0  0  0  0  0  0  0  0  0  0  0  0
    2.9091   -0.8548    0.6949 H   0  0  0  0  0  0  0  0  0  0  0  0
    2.7002    1.5468    1.3822 H   0  0  0  0  0  0  0  0  0  0  0  0
    2.7002    2.0328   -0.3135 H   0  0  0  0  0  0  0  0  0  0  0  0
    4.9763    1.0224   -0.6050 H   0  0  0  0  0  0  0  0  0  0  0  0
    4.9763    0.5354    1.0941 H   0  0  0  0  0  0  0  0  0  0  0  0
    4.7374    2.9328    1.7772 H   0  0  0  0  0  0  0  0  0  0  0  0
    4.7374    3.4177    0.0857 H   0  0  0  0  0  0  0  0  0  0  0  0
    7.0494    2.4993   -0.1908 H   0  0  0  0  0  0  0  0  0  0  0  0
    7.0494    2.0074    1.5252 H   0  0  0  0  0  0  0  0  0  0  0  0
    8.5743    5.7650    2.6101 H   0  0  0  0  0  0  0  0  0  0  0  0
    8.5743    6.2610    0.8796 H   0  0  0  0  0  0  0  0  0  0  0  0
   10.9835    4.6578    1.3564 H   0  0  0  0  0  0  0  0  0  0  0  0
   10.6555    7.5992    2.1995 H   0  0  0  0  0  0  0  0  0  0  0  0
   12.2335    6.6659    1.9320 H   0  0  0  0  0  0  0  0  0  0  0  0
  1  2  1  0  0  0  0
  1 13  1  0  0  0  0
  1 14  1  0  0  0  0
  1 15  1  0  0  0  0
  2  3  1  0  0  0  0
  2 16  1  0  0  0  0
  2 17  1  0  0  0  0
  3  4  1  0  0  0  0
  3 18  1  0  0  0  0
  3 19  1  0  0  0  0
  4  5  1  0  0  0  0
  4 20  1  0  0  0  0
  4 21  1  0  0  0  0
  5  6  1  0  0  0  0
  5 22  1  0  0  0  0
  5 23  1  0  0  0  0
  6  7  1  0  0  0  0
  6 24  1  0  0  0  0
  6 25  1  0  0  0  0
  7  8  2  0  0  0  0
  7  9  1  0  0  0  0
  9 10  1  0  0  0  0
 10 11  1  0  0  0  0
 10 26  1  0  0  0  0
 10 27  1  0  0  0  0
 11 12  2  0  0  0  0
 11 28  1  0  0  0  0
 12 29  1  0  0  0  0
 12 30  1  0  0  0  0
M  END
$$$$
