
 OpenBabel07222214433D

 15 14  0  0  0  0  0  0  0  0999 V2000
    0.9998    0.0622    0.0653 C   0  0  0  0  0  0  0  0  0  0  0  0
    2.5192    0.0641    0.0781 C   0  0  0  0  0  0  0  0  0  0  0  0
    3.0610    0.2616    1.4903 C   0  0  0  0  0  0  0  0  0  0  0  0
    4.5831    0.2658    1.5060 C   0  0  0  0  0  0  0  0  0  0  0  0
    5.0514    0.4411    2.8361 O   0  0  0  0  0  0  0  0  0  0  0  0
    0.6288   -0.0798   -0.9543 H   0  0  0  0  0  0  0  0  0  0  0  0
    0.6047    1.0106    0.4429 H   0  0  0  0  0  0  0  0  0  0  0  0
    0.6048   -0.7470    0.6878 H   0  0  0  0  0  0  0  0  0  0  0  0
    2.8849    0.8638   -0.5765 H   0  0  0  0  0  0  0  0  0  0  0  0
    2.8853   -0.8842   -0.3325 H   0  0  0  0  0  0  0  0  0  0  0  0
    2.6921   -0.5302    2.1544 H   0  0  0  0  0  0  0  0  0  0  0  0
    2.6877    1.2035    1.9114 H   0  0  0  0  0  0  0  0  0  0  0  0
    4.9847    1.0741    0.8865 H   0  0  0  0  0  0  0  0  0  0  0  0
    4.9780   -0.6832    1.1306 H   0  0  0  0  0  0  0  0  0  0  0  0
    4.7091    1.2924    3.1567 H   0  0  0  0  0  0  0  0  0  0  0  0
  1  2  1  0  0  0  0
  1  6  1  0  0  0  0
  1  7  1  0  0  0  0
  1  8  1  0  0  0  0
  2  3  1  0  0  0  0
  2  9  1  0  0  0  0
  2 10  1  0  0  0  0
  3  4  1  0  0  0  0
  3 11  1  0  0  0  0
  3 12  1  0  0  0  0
  4  5  1  0  0  0  0
  4 13  1  0  0  0  0
  4 14  1  0  0  0  0
  5 15  1  0  0  0  0
M  END
$$$$
