
 OpenBabel07222214433D

 25 25  0  0  1  0  0  0  0  0999 V2000
    2.7911   -3.8177    0.2500 C   0  0  0  0  0  0  0  0  0  0  0  0
    2.6759   -2.5377    1.0329 C   0  0  0  0  0  0  0  0  0  0  0  0
    1.9988   -2.5298    2.1961 C   0  0  0  0  0  0  0  0  0  0  0  0
    3.2912   -1.2582    0.4647 C   0  0  1  0  0  0  0  0  0  0  0  0
    4.1091   -0.4898    1.5233 C   0  0  0  0  0  0  0  0  0  0  0  0
    4.5547    0.8765    1.0043 C   0  0  0  0  0  0  0  0  0  0  0  0
    5.0694    0.8362   -0.4017 C   0  0  0  0  0  0  0  0  0  0  0  0
    4.9084   -0.2162   -1.2203 C   0  0  0  0  0  0  0  0  0  0  0  0
    4.1681   -1.4573   -0.7986 C   0  0  0  0  0  0  0  0  0  0  0  0
    5.8036    2.0306   -0.8865 C   0  0  0  0  0  0  0  0  0  0  0  0
    5.9837    3.0202   -0.1851 O   0  0  0  0  0  0  0  0  0  0  0  0
    2.2857   -4.6499    0.7518 H   0  0  0  0  0  0  0  0  0  0  0  0
    3.8396   -4.1062    0.1295 H   0  0  0  0  0  0  0  0  0  0  0  0
    2.3340   -3.7065   -0.7382 H   0  0  0  0  0  0  0  0  0  0  0  0
    1.5488   -3.4287    2.6047 H   0  0  0  0  0  0  0  0  0  0  0  0
    1.8597   -1.6228    2.7763 H   0  0  0  0  0  0  0  0  0  0  0  0
    2.4460   -0.6212    0.1616 H   0  0  0  0  0  0  0  0  0  0  0  0
    4.9863   -1.0840    1.8140 H   0  0  0  0  0  0  0  0  0  0  0  0
    3.5339   -0.3172    2.4388 H   0  0  0  0  0  0  0  0  0  0  0  0
    5.3191    1.2685    1.6850 H   0  0  0  0  0  0  0  0  0  0  0  0
    3.7012    1.5650    1.0416 H   0  0  0  0  0  0  0  0  0  0  0  0
    5.3113   -0.2135   -2.2302 H   0  0  0  0  0  0  0  0  0  0  0  0
    4.9147   -2.2444   -0.6362 H   0  0  0  0  0  0  0  0  0  0  0  0
    3.5315   -1.7803   -1.6317 H   0  0  0  0  0  0  0  0  0  0  0  0
    6.1797    1.9803   -1.9207 H   0  0  0  0  0  0  0  0  0  0  0  0
  1  2  1  0  0  0  0
  1 12  1  0  0  0  0
  1 13  1  0  0  0  0
  1 14  1  0  0  0  0
  2  3  2  0  0  0  0
  3 15  1  0  0  0  0
  3 16  1  0  0  0  0
  4  5  1  0  0  0  0
  4  9  1  0  0  0  0
  4  2  1  0  0  0  0
  4 17  1  6  0  0  0
  5  6  1  0  0  0  0
  5 18  1  0  0  0  0
  5 19  1  0  0  0  0
  6  7  1  0  0  0  0
  6 20  1  0  0  0  0
  6 21  1  0  0  0  0
  7  8  2  0  0  0  0
  7 10  1  0  0  0  0
  8  9  1  0  0  0  0
  8 22  1  0  0  0  0
  9 23  1  0  0  0  0
  9 24  1  0  0  0  0
 10 11  2  0  0  0  0
 10 25  1  0  0  0  0
M  END
$$$$
