
 OpenBabel07202215583D

 26 25  0  0  0  0  0  0  0  0999 V2000
    1.0671   -0.0050   -0.0531 C   0  0  0  0  0  0  0  0  0  0  0  0
    2.5859   -0.0112   -0.0636 C   0  0  0  0  0  0  0  0  0  0  0  0
    3.1162   -0.7329   -1.3006 C   0  0  0  0  0  0  0  0  0  0  0  0
    4.6432   -0.7443   -1.3202 C   0  0  0  0  0  0  0  0  0  0  0  0
    5.1776   -1.4667   -2.5583 C   0  0  0  0  0  0  0  0  0  0  0  0
    6.7049   -1.4792   -2.5796 C   0  0  0  0  0  0  0  0  0  0  0  0
    7.1691   -2.1657   -3.7562 O   0  0  0  0  0  0  0  0  0  0  0  0
    8.5271   -2.2261   -3.8597 C   0  0  0  0  0  0  0  0  0  0  0  0
    9.3149   -1.7527   -3.0483 O   0  0  0  0  0  0  0  0  0  0  0  0
    8.9670   -2.9499   -5.1002 C   0  0  0  0  0  0  0  0  0  0  0  0
    0.6938    0.5131    0.8349 H   0  0  0  0  0  0  0  0  0  0  0  0
    0.6749   -1.0270   -0.0443 H   0  0  0  0  0  0  0  0  0  0  0  0
    0.6749    0.5055   -0.9385 H   0  0  0  0  0  0  0  0  0  0  0  0
    2.9538   -0.5035    0.8442 H   0  0  0  0  0  0  0  0  0  0  0  0
    2.9538    1.0214   -0.0456 H   0  0  0  0  0  0  0  0  0  0  0  0
    2.7389   -0.2381   -2.2039 H   0  0  0  0  0  0  0  0  0  0  0  0
    2.7389   -1.7628   -1.3143 H   0  0  0  0  0  0  0  0  0  0  0  0
    5.0155   -1.2369   -0.4134 H   0  0  0  0  0  0  0  0  0  0  0  0
    5.0155    0.2874   -1.3028 H   0  0  0  0  0  0  0  0  0  0  0  0
    4.8002   -0.9828   -3.4675 H   0  0  0  0  0  0  0  0  0  0  0  0
    4.8002   -2.4964   -2.5843 H   0  0  0  0  0  0  0  0  0  0  0  0
    7.0788   -1.9945   -1.6869 H   0  0  0  0  0  0  0  0  0  0  0  0
    7.0788   -0.4484   -2.5890 H   0  0  0  0  0  0  0  0  0  0  0  0
    8.1143   -3.2947   -5.6910 H   0  0  0  0  0  0  0  0  0  0  0  0
    9.5657   -3.8206   -4.8174 H   0  0  0  0  0  0  0  0  0  0  0  0
    9.5657   -2.2753   -5.7191 H   0  0  0  0  0  0  0  0  0  0  0  0
  1  2  1  0  0  0  0
  1 11  1  0  0  0  0
  1 12  1  0  0  0  0
  1 13  1  0  0  0  0
  2  3  1  0  0  0  0
  2 14  1  0  0  0  0
  2 15  1  0  0  0  0
  3  4  1  0  0  0  0
  3 16  1  0  0  0  0
  3 17  1  0  0  0  0
  4  5  1  0  0  0  0
  4 18  1  0  0  0  0
  4 19  1  0  0  0  0
  5  6  1  0  0  0  0
  5 20  1  0  0  0  0
  5 21  1  0  0  0  0
  6  7  1  0  0  0  0
  6 22  1  0  0  0  0
  6 23  1  0  0  0  0
  7  8  1  0  0  0  0
  8  9  2  0  0  0  0
  8 10  1  0  0  0  0
 10 24  1  0  0  0  0
 10 25  1  0  0  0  0
 10 26  1  0  0  0  0
M  END
$$$$
