
 OpenBabel07222214433D

 24 23  0  0  0  0  0  0  0  0999 V2000
    0.9088    0.1012   -0.0018 C   0  0  0  0  0  0  0  0  0  0  0  0
    2.4271    0.0900   -0.0013 C   0  0  0  0  0  0  0  0  0  0  0  0
    2.9594   -1.3381    0.0550 C   0  0  0  0  0  0  0  0  0  0  0  0
    4.4847   -1.3541    0.0558 C   0  0  0  0  0  0  0  0  0  0  0  0
    5.0072   -2.7861    0.1122 C   0  0  0  0  0  0  0  0  0  0  0  0
    6.5305   -2.8125    0.1124 C   0  0  0  0  0  0  0  0  0  0  0  0
    7.0504   -4.2407    0.1666 C   0  0  0  0  0  0  0  0  0  0  0  0
    8.4709   -4.2351    0.1727 O   0  0  0  0  0  0  0  0  0  0  0  0
    0.5366    1.1288   -0.0423 H   0  0  0  0  0  0  0  0  0  0  0  0
    0.5159   -0.3705    0.9046 H   0  0  0  0  0  0  0  0  0  0  0  0
    0.5160   -0.4404   -0.8682 H   0  0  0  0  0  0  0  0  0  0  0  0
    2.7955    0.6599    0.8597 H   0  0  0  0  0  0  0  0  0  0  0  0
    2.7955    0.5904   -0.9045 H   0  0  0  0  0  0  0  0  0  0  0  0
    2.5856   -1.9063   -0.8057 H   0  0  0  0  0  0  0  0  0  0  0  0
    2.5854   -1.8368    0.9577 H   0  0  0  0  0  0  0  0  0  0  0  0
    4.8607   -0.7886    0.9171 H   0  0  0  0  0  0  0  0  0  0  0  0
    4.8606   -0.8581   -0.8474 H   0  0  0  0  0  0  0  0  0  0  0  0
    4.6282   -3.3505   -0.7486 H   0  0  0  0  0  0  0  0  0  0  0  0
    4.6288   -3.2811    1.0149 H   0  0  0  0  0  0  0  0  0  0  0  0
    6.9222   -2.2466    0.9668 H   0  0  0  0  0  0  0  0  0  0  0  0
    6.9189   -2.3119   -0.7833 H   0  0  0  0  0  0  0  0  0  0  0  0
    6.7076   -4.8200   -0.6968 H   0  0  0  0  0  0  0  0  0  0  0  0
    6.7072   -4.7439    1.0756 H   0  0  0  0  0  0  0  0  0  0  0  0
    8.7635   -3.7935   -0.6408 H   0  0  0  0  0  0  0  0  0  0  0  0
  1  2  1  0  0  0  0
  1  9  1  0  0  0  0
  1 10  1  0  0  0  0
  1 11  1  0  0  0  0
  2  3  1  0  0  0  0
  2 12  1  0  0  0  0
  2 13  1  0  0  0  0
  3  4  1  0  0  0  0
  3 14  1  0  0  0  0
  3 15  1  0  0  0  0
  4  5  1  0  0  0  0
  4 16  1  0  0  0  0
  4 17  1  0  0  0  0
  5  6  1  0  0  0  0
  5 18  1  0  0  0  0
  5 19  1  0  0  0  0
  6  7  1  0  0  0  0
  6 20  1  0  0  0  0
  6 21  1  0  0  0  0
  7  8  1  0  0  0  0
  7 22  1  0  0  0  0
  7 23  1  0  0  0  0
  8 24  1  0  0  0  0
M  END
$$$$
