
 OpenBabel07222214433D

 20 19  0  0  0  0  0  0  0  0999 V2000
    1.0356   -0.0515    0.0688 C   0  0  0  0  0  0  0  0  0  0  0  0
    2.5509   -0.0579    0.0585 C   0  0  0  0  0  0  0  0  0  0  0  0
    3.0776   -0.8113   -1.1590 C   0  0  0  0  0  0  0  0  0  0  0  0
    4.5989   -0.8062   -1.1507 C   0  0  0  0  0  0  0  0  0  0  0  0
    5.1777   -1.5460   -2.3463 C   0  0  0  0  0  0  0  0  0  0  0  0
    6.6884   -1.5863   -2.4114 C   0  0  0  0  0  0  0  0  0  0  0  0
    7.3671   -0.9741   -1.4221 O   0  0  0  0  0  0  0  0  0  0  0  0
    7.2799   -2.1513   -3.3245 O   0  0  0  0  0  0  0  0  0  0  0  0
    0.6645    0.4896    0.9434 H   0  0  0  0  0  0  0  0  0  0  0  0
    0.6459   -1.0737    0.1035 H   0  0  0  0  0  0  0  0  0  0  0  0
    0.6459    0.4357   -0.8304 H   0  0  0  0  0  0  0  0  0  0  0  0
    2.9223   -0.5267    0.9778 H   0  0  0  0  0  0  0  0  0  0  0  0
    2.9223    0.9739    0.0492 H   0  0  0  0  0  0  0  0  0  0  0  0
    2.7076   -0.3410   -2.0780 H   0  0  0  0  0  0  0  0  0  0  0  0
    2.7076   -1.8436   -1.1482 H   0  0  0  0  0  0  0  0  0  0  0  0
    4.9531   -1.2734   -0.2236 H   0  0  0  0  0  0  0  0  0  0  0  0
    4.9531    0.2320   -1.1551 H   0  0  0  0  0  0  0  0  0  0  0  0
    4.8215   -1.0737   -3.2700 H   0  0  0  0  0  0  0  0  0  0  0  0
    4.8215   -2.5833   -2.3358 H   0  0  0  0  0  0  0  0  0  0  0  0
    6.8511   -0.5399   -0.7204 H   0  0  0  0  0  0  0  0  0  0  0  0
  1  2  1  0  0  0  0
  1  9  1  0  0  0  0
  1 10  1  0  0  0  0
  1 11  1  0  0  0  0
  2  3  1  0  0  0  0
  2 12  1  0  0  0  0
  2 13  1  0  0  0  0
  3  4  1  0  0  0  0
  3 14  1  0  0  0  0
  3 15  1  0  0  0  0
  4  5  1  0  0  0  0
  4 16  1  0  0  0  0
  4 17  1  0  0  0  0
  5  6  1  0  0  0  0
  5 18  1  0  0  0  0
  5 19  1  0  0  0  0
  6  7  1  0  0  0  0
  6  8  2  0  0  0  0
  7 20  1  0  0  0  0
M  END
$$$$
