
 OpenBabel07202215583D

 27 28  0  0  1  0  0  0  0  0999 V2000
    0.9311    0.0526   -0.1530 C   0  0  0  0  0  0  0  0  0  0  0  0
    2.4566    0.0103   -0.0935 C   0  0  0  0  0  0  0  0  0  0  0  0
    2.9637    1.4005    0.2883 C   0  0  0  0  0  0  0  0  0  0  0  0
    3.0196   -1.1151    0.8358 C   0  0  1  0  0  0  0  0  0  0  0  0
    2.3031   -2.4565    0.5623 C   0  0  0  0  0  0  0  0  0  0  0  0
    2.8171   -2.8487   -0.8378 C   0  0  0  0  0  0  0  0  0  0  0  0
    3.8616   -1.7586   -1.1453 C   0  0  2  0  0  0  0  0  0  0  0  0
    4.8975   -2.1273   -2.1778 C   0  0  0  0  0  0  0  0  0  0  0  0
    4.4064   -1.4123    0.2406 C   0  0  0  0  0  0  0  0  0  0  0  0
    3.0685   -0.4787   -1.4087 C   0  0  0  0  0  0  0  0  0  0  0  0
    2.9220    0.0552   -2.5010 O   0  0  0  0  0  0  0  0  0  0  0  0
    0.5232    0.2898    0.8358 H   0  0  0  0  0  0  0  0  0  0  0  0
    0.4842   -0.8843   -0.4936 H   0  0  0  0  0  0  0  0  0  0  0  0
    0.5867    0.8093   -0.8643 H   0  0  0  0  0  0  0  0  0  0  0  0
    2.5748    1.6879    1.2724 H   0  0  0  0  0  0  0  0  0  0  0  0
    2.6161    2.1479   -0.4350 H   0  0  0  0  0  0  0  0  0  0  0  0
    4.0540    1.4689    0.3229 H   0  0  0  0  0  0  0  0  0  0  0  0
    3.0402   -0.8427    1.8939 H   0  0  0  0  0  0  0  0  0  0  0  0
    1.2137   -2.3946    0.6009 H   0  0  0  0  0  0  0  0  0  0  0  0
    2.5864   -3.2118    1.3026 H   0  0  0  0  0  0  0  0  0  0  0  0
    2.0045   -2.8519   -1.5736 H   0  0  0  0  0  0  0  0  0  0  0  0
    3.2592   -3.8497   -0.8060 H   0  0  0  0  0  0  0  0  0  0  0  0
    5.4438   -3.0289   -1.8789 H   0  0  0  0  0  0  0  0  0  0  0  0
    5.6285   -1.3231   -2.3138 H   0  0  0  0  0  0  0  0  0  0  0  0
    4.4352   -2.3207   -3.1515 H   0  0  0  0  0  0  0  0  0  0  0  0
    5.0790   -0.5480    0.2384 H   0  0  0  0  0  0  0  0  0  0  0  0
    4.9134   -2.2561    0.7224 H   0  0  0  0  0  0  0  0  0  0  0  0
  1  2  1  0  0  0  0
  1 12  1  0  0  0  0
  1 13  1  0  0  0  0
  1 14  1  0  0  0  0
  2  3  1  0  0  0  0
  2  4  1  0  0  0  0
  2 10  1  0  0  0  0
  3 15  1  0  0  0  0
  3 16  1  0  0  0  0
  3 17  1  0  0  0  0
  4  5  1  0  0  0  0
  4  9  1  0  0  0  0
  4 18  1  1  0  0  0
  5  6  1  0  0  0  0
  5 19  1  0  0  0  0
  5 20  1  0  0  0  0
  6  7  1  0  0  0  0
  6 21  1  0  0  0  0
  6 22  1  0  0  0  0
  7  8  1  6  0  0  0
  7  9  1  0  0  0  0
  7 10  1  0  0  0  0
  8 23  1  0  0  0  0
  8 24  1  0  0  0  0
  8 25  1  0  0  0  0
  9 26  1  0  0  0  0
  9 27  1  0  0  0  0
 10 11  2  0  0  0  0
M  END
$$$$
