
 OpenBabel07222214433D

 16 15  0  0  0  0  0  0  0  0999 V2000
    1.0536   -0.0392    0.0638 C   0  0  0  0  0  0  0  0  0  0  0  0
    2.5707   -0.0354    0.0657 C   0  0  0  0  0  0  0  0  0  0  0  0
    3.1343    1.2362    0.6942 C   0  0  0  0  0  0  0  0  0  0  0  0
    4.6521    1.2244    0.6884 C   0  0  0  0  0  0  0  0  0  0  0  0
    5.3057    0.2879    0.2255 O   0  0  0  0  0  0  0  0  0  0  0  0
    5.3551    2.4166    1.2776 C   0  0  0  0  0  0  0  0  0  0  0  0
    0.6801   -0.9615   -0.3921 H   0  0  0  0  0  0  0  0  0  0  0  0
    0.6619    0.8075   -0.5083 H   0  0  0  0  0  0  0  0  0  0  0  0
    0.6619    0.0205    1.0839 H   0  0  0  0  0  0  0  0  0  0  0  0
    2.9341   -0.1331   -0.9646 H   0  0  0  0  0  0  0  0  0  0  0  0
    2.9341   -0.9133    0.6138 H   0  0  0  0  0  0  0  0  0  0  0  0
    2.7924    1.3263    1.7315 H   0  0  0  0  0  0  0  0  0  0  0  0
    2.7924    2.1150    0.1359 H   0  0  0  0  0  0  0  0  0  0  0  0
    4.6360    3.1541    1.6422 H   0  0  0  0  0  0  0  0  0  0  0  0
    5.9764    2.8797    0.5068 H   0  0  0  0  0  0  0  0  0  0  0  0
    5.9764    2.0854    2.1137 H   0  0  0  0  0  0  0  0  0  0  0  0
  1  2  1  0  0  0  0
  1  7  1  0  0  0  0
  1  8  1  0  0  0  0
  1  9  1  0  0  0  0
  2  3  1  0  0  0  0
  2 10  1  0  0  0  0
  2 11  1  0  0  0  0
  3  4  1  0  0  0  0
  3 12  1  0  0  0  0
  3 13  1  0  0  0  0
  4  5  2  0  0  0  0
  4  6  1  0  0  0  0
  6 14  1  0  0  0  0
  6 15  1  0  0  0  0
  6 16  1  0  0  0  0
M  END
$$$$
