
 OpenBabel07122215493D

 18 17  0  0  0  0  0  0  0  0999 V2000
    1.0624    0.0089    0.0720 C   0  0  0  0  0  0  0  0  0  0  0  0
    2.5796    0.0024    0.0783 C   0  0  0  0  0  0  0  0  0  0  0  0
    3.1420   -1.0245    1.0606 C   0  0  0  0  0  0  0  0  0  0  0  0
    4.6551   -1.0051    1.0421 C   0  0  0  0  0  0  0  0  0  0  0  0
    5.3251   -0.2632    0.3324 O   0  0  0  0  0  0  0  0  0  0  0  0
    5.3648   -1.9790    1.9739 C   0  0  0  0  0  0  0  0  0  0  0  0
    4.7018   -2.7243    2.6869 O   0  0  0  0  0  0  0  0  0  0  0  0
    6.8683   -1.9715    1.9667 C   0  0  0  0  0  0  0  0  0  0  0  0
    0.6916    0.7531   -0.6400 H   0  0  0  0  0  0  0  0  0  0  0  0
    0.6691    0.2588    1.0621 H   0  0  0  0  0  0  0  0  0  0  0  0
    0.6691   -0.9692   -0.2214 H   0  0  0  0  0  0  0  0  0  0  0  0
    2.9440    1.0040    0.3380 H   0  0  0  0  0  0  0  0  0  0  0  0
    2.9440   -0.2128   -0.9338 H   0  0  0  0  0  0  0  0  0  0  0  0
    2.7981   -2.0283    0.7873 H   0  0  0  0  0  0  0  0  0  0  0  0
    2.7981   -0.7957    2.0756 H   0  0  0  0  0  0  0  0  0  0  0  0
    7.2735   -1.2387    1.2656 H   0  0  0  0  0  0  0  0  0  0  0  0
    7.2313   -2.9595    1.6721 H   0  0  0  0  0  0  0  0  0  0  0  0
    7.2313   -1.7209    2.9667 H   0  0  0  0  0  0  0  0  0  0  0  0
  1  2  1  0  0  0  0
  1  9  1  0  0  0  0
  1 10  1  0  0  0  0
  1 11  1  0  0  0  0
  2  3  1  0  0  0  0
  2 12  1  0  0  0  0
  2 13  1  0  0  0  0
  3  4  1  0  0  0  0
  3 14  1  0  0  0  0
  3 15  1  0  0  0  0
  4  5  2  0  0  0  0
  4  6  1  0  0  0  0
  6  7  2  0  0  0  0
  6  8  1  0  0  0  0
  8 16  1  0  0  0  0
  8 17  1  0  0  0  0
  8 18  1  0  0  0  0
M  END
$$$$
