
 OpenBabel07222214433D

 30 30  0  0  0  0  0  0  0  0999 V2000
    1.0654    0.0258    0.0116 C   0  0  0  0  0  0  0  0  0  0  0  0
    2.5793    0.0222    0.0082 C   0  0  0  0  0  0  0  0  0  0  0  0
    3.1043   -0.7767    1.1873 C   0  0  0  0  0  0  0  0  0  0  0  0
    4.6230   -0.7960    1.1643 C   0  0  0  0  0  0  0  0  0  0  0  0
    5.1287   -1.6419    2.3166 C   0  0  0  0  0  0  0  0  0  0  0  0
    6.6520   -1.5708    2.4346 C   0  0  0  0  0  0  0  0  0  0  0  0
    7.1676   -2.3014    3.6592 C   0  0  0  0  0  0  0  0  0  0  0  0
    6.6749   -1.6254    4.9374 C   0  0  0  0  0  0  0  0  0  0  0  0
    6.2751   -0.1615    4.7548 C   0  0  0  0  0  0  0  0  0  0  0  0
    7.0020    0.5162    3.6210 C   0  0  0  0  0  0  0  0  0  0  0  0
    7.3893    1.6732    3.6913 O   0  0  0  0  0  0  0  0  0  0  0  0
    7.1288   -0.2106    2.4803 O   0  0  0  0  0  0  0  0  0  0  0  0
    0.6890    0.5924   -0.8432 H   0  0  0  0  0  0  0  0  0  0  0  0
    0.6820    0.4832    0.9293 H   0  0  0  0  0  0  0  0  0  0  0  0
    0.6782   -0.9962   -0.0500 H   0  0  0  0  0  0  0  0  0  0  0  0
    2.9539    1.0514    0.0585 H   0  0  0  0  0  0  0  0  0  0  0  0
    2.9480   -0.4155   -0.9263 H   0  0  0  0  0  0  0  0  0  0  0  0
    2.7210   -1.8036    1.1550 H   0  0  0  0  0  0  0  0  0  0  0  0
    2.7513   -0.3312    2.1273 H   0  0  0  0  0  0  0  0  0  0  0  0
    4.9925    0.2337    1.2458 H   0  0  0  0  0  0  0  0  0  0  0  0
    4.9947   -1.2070    0.2200 H   0  0  0  0  0  0  0  0  0  0  0  0
    4.8083   -2.6844    2.2123 H   0  0  0  0  0  0  0  0  0  0  0  0
    4.6253   -1.2878    3.2161 H   0  0  0  0  0  0  0  0  0  0  0  0
    7.0892   -2.0229    1.5355 H   0  0  0  0  0  0  0  0  0  0  0  0
    8.2648   -2.2722    3.6495 H   0  0  0  0  0  0  0  0  0  0  0  0
    6.8742   -3.3570    3.6376 H   0  0  0  0  0  0  0  0  0  0  0  0
    7.4581   -1.6988    5.6989 H   0  0  0  0  0  0  0  0  0  0  0  0
    5.8140   -2.1827    5.3274 H   0  0  0  0  0  0  0  0  0  0  0  0
    6.4554    0.3871    5.6833 H   0  0  0  0  0  0  0  0  0  0  0  0
    5.2007   -0.0466    4.5743 H   0  0  0  0  0  0  0  0  0  0  0  0
  1  2  1  0  0  0  0
  1 13  1  0  0  0  0
  1 14  1  0  0  0  0
  1 15  1  0  0  0  0
  2  3  1  0  0  0  0
  2 16  1  0  0  0  0
  2 17  1  0  0  0  0
  3  4  1  0  0  0  0
  3 18  1  0  0  0  0
  3 19  1  0  0  0  0
  4  5  1  0  0  0  0
  4 20  1  0  0  0  0
  4 21  1  0  0  0  0
  5  6  1  0  0  0  0
  5 22  1  0  0  0  0
  5 23  1  0  0  0  0
  6  7  1  0  0  0  0
  6 12  1  0  0  0  0
  6 24  1  0  0  0  0
  7  8  1  0  0  0  0
  7 25  1  0  0  0  0
  7 26  1  0  0  0  0
  8  9  1  0  0  0  0
  8 27  1  0  0  0  0
  8 28  1  0  0  0  0
  9 10  1  0  0  0  0
  9 29  1  0  0  0  0
  9 30  1  0  0  0  0
 10 11  2  0  0  0  0
 10 12  1  0  0  0  0
M  END
$$$$
