
 OpenBabel07222214443D

 29 30  0  0  0  0  0  0  0  0999 V2000
   -1.4346    0.3290   -0.2113 C   0  0  0  0  0  0  0  0  0  0  0  0
   -0.4413    1.3958    0.2390 C   0  0  0  0  0  0  0  0  0  0  0  0
    0.9737    1.0774   -0.2327 C   0  0  0  0  0  0  0  0  0  0  0  0
    1.4198   -0.3312    0.1977 C   0  0  0  0  0  0  0  0  0  0  0  0
    0.3996   -1.3964   -0.2381 C   0  0  0  0  0  0  0  0  0  0  0  0
   -1.0075   -1.0624    0.2457 C   0  0  0  0  0  0  0  0  0  0  0  0
    2.7997   -0.6479   -0.3486 C   0  0  0  0  0  0  0  0  0  0  0  0
    3.0321   -0.7027   -1.7329 C   0  0  0  0  0  0  0  0  0  0  0  0
    4.3027   -0.9750   -2.2379 C   0  0  0  0  0  0  0  0  0  0  0  0
    5.3503   -1.1954   -1.3518 C   0  0  0  0  0  0  0  0  0  0  0  0
    5.1426   -1.1581    0.0206 C   0  0  0  0  0  0  0  0  0  0  0  0
    3.8701   -0.8845    0.5255 C   0  0  0  0  0  0  0  0  0  0  0  0
    6.6131   -1.4515   -1.7977 O   0  0  0  0  0  0  0  0  0  0  0  0
   -1.5147    0.3442   -1.3057 H   0  0  0  0  0  0  0  0  0  0  0  0
   -2.4291    0.5591    0.1857 H   0  0  0  0  0  0  0  0  0  0  0  0
   -0.4544    1.4730    1.3327 H   0  0  0  0  0  0  0  0  0  0  0  0
   -0.7450    2.3718   -0.1562 H   0  0  0  0  0  0  0  0  0  0  0  0
    1.6703    1.8288    0.1600 H   0  0  0  0  0  0  0  0  0  0  0  0
    1.0020    1.1720   -1.3255 H   0  0  0  0  0  0  0  0  0  0  0  0
    1.4627   -0.3434    1.2967 H   0  0  0  0  0  0  0  0  0  0  0  0
    0.6972   -2.3812    0.1429 H   0  0  0  0  0  0  0  0  0  0  0  0
    0.3764   -1.4816   -1.3318 H   0  0  0  0  0  0  0  0  0  0  0  0
   -1.0432   -1.1190    1.3402 H   0  0  0  0  0  0  0  0  0  0  0  0
   -1.7112   -1.8091   -0.1389 H   0  0  0  0  0  0  0  0  0  0  0  0
    2.2178   -0.5280   -2.4332 H   0  0  0  0  0  0  0  0  0  0  0  0
    4.4472   -1.0077   -3.3119 H   0  0  0  0  0  0  0  0  0  0  0  0
    5.9718   -1.3384    0.6989 H   0  0  0  0  0  0  0  0  0  0  0  0
    3.7246   -0.8548    1.6024 H   0  0  0  0  0  0  0  0  0  0  0  0
    6.6097   -1.4153   -2.7674 H   0  0  0  0  0  0  0  0  0  0  0  0
  1  2  1  0  0  0  0
  1  6  1  0  0  0  0
  1 14  1  0  0  0  0
  1 15  1  0  0  0  0
  2  3  1  0  0  0  0
  2 16  1  0  0  0  0
  2 17  1  0  0  0  0
  3  4  1  0  0  0  0
  3 18  1  0  0  0  0
  3 19  1  0  0  0  0
  4  5  1  0  0  0  0
  4  7  1  0  0  0  0
  4 20  1  0  0  0  0
  5  6  1  0  0  0  0
  5 21  1  0  0  0  0
  5 22  1  0  0  0  0
  6 23  1  0  0  0  0
  6 24  1  0  0  0  0
  7  8  2  0  0  0  0
  7 12  1  0  0  0  0
  8  9  1  0  0  0  0
  8 25  1  0  0  0  0
  9 10  2  0  0  0  0
  9 26  1  0  0  0  0
 10 11  1  0  0  0  0
 10 13  1  0  0  0  0
 11 12  2  0  0  0  0
 11 27  1  0  0  0  0
 12 28  1  0  0  0  0
 13 29  1  0  0  0  0
M  END
$$$$
