
 OpenBabel07202215583D

 29 30  0  0  0  0  0  0  0  0999 V2000
    1.0145   -0.0346    0.0848 C   0  0  0  0  0  0  0  0  0  0  0  0
    2.5315   -0.0889    0.0010 C   0  0  0  0  0  0  0  0  0  0  0  0
    3.0910   -1.2006   -0.9568 C   0  0  0  0  0  0  0  0  0  0  0  0
    1.9829   -1.8013   -1.8519 C   0  0  0  0  0  0  0  0  0  0  0  0
    1.3652   -1.1693   -2.7133 O   0  0  0  0  0  0  0  0  0  0  0  0
    1.6410   -3.1026   -1.6754 N   0  0  0  0  0  0  0  0  0  0  0  0
    2.2086   -3.9833   -0.8197 C   0  0  0  0  0  0  0  0  0  0  0  0
    1.8494   -5.1490   -0.7711 O   0  0  0  0  0  0  0  0  0  0  0  0
    3.1988   -3.5072   -0.0255 N   0  0  0  0  0  0  0  0  0  0  0  0
    3.7122   -2.2454   -0.0175 C   0  0  0  0  0  0  0  0  0  0  0  0
    4.6415   -2.0008    0.7570 O   0  0  0  0  0  0  0  0  0  0  0  0
    4.1329   -0.5704   -1.9005 C   0  0  0  0  0  0  0  0  0  0  0  0
    5.4618   -1.0060   -1.9783 C   0  0  0  0  0  0  0  0  0  0  0  0
    6.3673   -0.3546   -2.8131 C   0  0  0  0  0  0  0  0  0  0  0  0
    5.9361    0.6619   -3.6624 C   0  0  0  0  0  0  0  0  0  0  0  0
    4.6117    1.0763   -3.6381 C   0  0  0  0  0  0  0  0  0  0  0  0
    3.7283    0.4832   -2.7476 C   0  0  0  0  0  0  0  0  0  0  0  0
    0.6964    0.7334    0.7938 H   0  0  0  0  0  0  0  0  0  0  0  0
    0.6130   -0.9976    0.4136 H   0  0  0  0  0  0  0  0  0  0  0  0
    0.5783    0.2265   -0.8830 H   0  0  0  0  0  0  0  0  0  0  0  0
    2.9087   -0.2272    1.0242 H   0  0  0  0  0  0  0  0  0  0  0  0
    2.8947    0.9089   -0.2776 H   0  0  0  0  0  0  0  0  0  0  0  0
    0.9145   -3.4508   -2.2848 H   0  0  0  0  0  0  0  0  0  0  0  0
    3.6287   -4.1695    0.6046 H   0  0  0  0  0  0  0  0  0  0  0  0
    5.8336   -1.8402   -1.3878 H   0  0  0  0  0  0  0  0  0  0  0  0
    7.4146   -0.6421   -2.7933 H   0  0  0  0  0  0  0  0  0  0  0  0
    6.6346    1.1300   -4.3474 H   0  0  0  0  0  0  0  0  0  0  0  0
    4.2579    1.8638   -4.2968 H   0  0  0  0  0  0  0  0  0  0  0  0
    2.6981    0.8402   -2.7362 H   0  0  0  0  0  0  0  0  0  0  0  0
  1  2  1  0  0  0  0
  1 18  1  0  0  0  0
  1 19  1  0  0  0  0
  1 20  1  0  0  0  0
  2  3  1  0  0  0  0
  2 21  1  0  0  0  0
  2 22  1  0  0  0  0
  3  4  1  0  0  0  0
  3 10  1  0  0  0  0
  3 12  1  0  0  0  0
  4  5  2  0  0  0  0
  4  6  1  0  0  0  0
  6  7  1  0  0  0  0
  6 23  1  0  0  0  0
  7  8  2  0  0  0  0
  7  9  1  0  0  0  0
  9 10  1  0  0  0  0
  9 24  1  0  0  0  0
 10 11  2  0  0  0  0
 12 13  1  0  0  0  0
 12 17  2  0  0  0  0
 13 14  2  0  0  0  0
 13 25  1  0  0  0  0
 14 15  1  0  0  0  0
 14 26  1  0  0  0  0
 15 16  2  0  0  0  0
 15 27  1  0  0  0  0
 16 17  1  0  0  0  0
 16 28  1  0  0  0  0
 17 29  1  0  0  0  0
M  END
$$$$
