
 OpenBabel07202215583D

 34 34  0  0  0  0  0  0  0  0999 V2000
    0.9913   -0.0471    0.0844 C   0  0  0  0  0  0  0  0  0  0  0  0
    2.4987    0.0245    0.0876 C   0  0  0  0  0  0  0  0  0  0  0  0
    3.1056    0.9393   -0.4679 O   0  0  0  0  0  0  0  0  0  0  0  0
    3.2179   -1.0833    0.7722 C   0  0  0  0  0  0  0  0  0  0  0  0
    4.5592   -1.1946    0.7540 C   0  0  0  0  0  0  0  0  0  0  0  0
    5.2649   -2.3501    1.3248 C   0  0  0  0  0  0  0  0  0  0  0  0
    4.8984   -3.6162    1.0007 C   0  0  0  0  0  0  0  0  0  0  0  0
    3.9047   -3.9842   -0.0766 C   0  0  0  0  0  0  0  0  0  0  0  0
    5.4560   -4.8372    1.6981 C   0  0  0  0  0  0  0  0  0  0  0  0
    6.2621   -4.5310    2.9511 C   0  0  0  0  0  0  0  0  0  0  0  0
    7.2033   -3.3710    2.6801 C   0  0  0  0  0  0  0  0  0  0  0  0
    6.4332   -2.0686    2.3059 C   0  0  0  0  0  0  0  0  0  0  0  0
    7.4897   -1.1090    1.7120 C   0  0  0  0  0  0  0  0  0  0  0  0
    5.8758   -1.4390    3.5983 C   0  0  0  0  0  0  0  0  0  0  0  0
    0.5873    0.8410   -0.4111 H   0  0  0  0  0  0  0  0  0  0  0  0
    0.6133   -0.0691    1.1101 H   0  0  0  0  0  0  0  0  0  0  0  0
    0.6489   -0.9311   -0.4620 H   0  0  0  0  0  0  0  0  0  0  0  0
    2.5951   -1.8514    1.2181 H   0  0  0  0  0  0  0  0  0  0  0  0
    5.1590   -0.4146    0.2891 H   0  0  0  0  0  0  0  0  0  0  0  0
    3.5199   -3.1357   -0.6451 H   0  0  0  0  0  0  0  0  0  0  0  0
    3.0498   -4.5045    0.3659 H   0  0  0  0  0  0  0  0  0  0  0  0
    4.3830   -4.6383   -0.8113 H   0  0  0  0  0  0  0  0  0  0  0  0
    6.0812   -5.3896    0.9867 H   0  0  0  0  0  0  0  0  0  0  0  0
    4.6287   -5.4983    1.9846 H   0  0  0  0  0  0  0  0  0  0  0  0
    6.8292   -5.4205    3.2486 H   0  0  0  0  0  0  0  0  0  0  0  0
    5.5921   -4.2961    3.7863 H   0  0  0  0  0  0  0  0  0  0  0  0
    7.8804   -3.6607    1.8638 H   0  0  0  0  0  0  0  0  0  0  0  0
    7.8400   -3.2058    3.5587 H   0  0  0  0  0  0  0  0  0  0  0  0
    7.9306   -1.5192    0.7958 H   0  0  0  0  0  0  0  0  0  0  0  0
    8.3088   -0.9429    2.4237 H   0  0  0  0  0  0  0  0  0  0  0  0
    7.0720   -0.1259    1.4757 H   0  0  0  0  0  0  0  0  0  0  0  0
    5.1297   -2.0846    4.0731 H   0  0  0  0  0  0  0  0  0  0  0  0
    5.4003   -0.4724    3.4015 H   0  0  0  0  0  0  0  0  0  0  0  0
    6.6758   -1.2657    4.3280 H   0  0  0  0  0  0  0  0  0  0  0  0
  1  2  1  0  0  0  0
  1 15  1  0  0  0  0
  1 16  1  0  0  0  0
  1 17  1  0  0  0  0
  2  3  2  0  0  0  0
  2  4  1  0  0  0  0
  4  5  2  0  0  0  0
  4 18  1  0  0  0  0
  5  6  1  0  0  0  0
  5 19  1  0  0  0  0
  6  7  2  0  0  0  0
  6 12  1  0  0  0  0
  7  8  1  0  0  0  0
  7  9  1  0  0  0  0
  8 20  1  0  0  0  0
  8 21  1  0  0  0  0
  8 22  1  0  0  0  0
  9 10  1  0  0  0  0
  9 23  1  0  0  0  0
  9 24  1  0  0  0  0
 10 11  1  0  0  0  0
 10 25  1  0  0  0  0
 10 26  1  0  0  0  0
 11 12  1  0  0  0  0
 11 27  1  0  0  0  0
 11 28  1  0  0  0  0
 12 13  1  0  0  0  0
 12 14  1  0  0  0  0
 13 29  1  0  0  0  0
 13 30  1  0  0  0  0
 13 31  1  0  0  0  0
 14 32  1  0  0  0  0
 14 33  1  0  0  0  0
 14 34  1  0  0  0  0
M  END
$$$$
