
 OpenBabel07222214433D

 31 30  0  0  1  0  0  0  0  0999 V2000
    0.9772    0.0278    0.0419 C   0  0  0  0  0  0  0  0  0  0  0  0
    2.5098    0.0872    0.0561 C   0  0  1  0  0  0  0  0  0  0  0  0
    3.0128    1.4980    0.4037 C   0  0  0  0  0  0  0  0  0  0  0  0
    2.5348    2.5251   -0.6024 C   0  0  0  0  0  0  0  0  0  0  0  0
    3.0299    3.8964   -0.2862 C   0  0  0  0  0  0  0  0  0  0  0  0
    2.7026    4.9632   -1.0421 C   0  0  0  0  0  0  0  0  0  0  0  0
    1.8369    4.8530   -2.2686 C   0  0  0  0  0  0  0  0  0  0  0  0
    3.1921    6.3326   -0.6844 C   0  0  0  0  0  0  0  0  0  0  0  0
    3.0596   -0.9345    1.0592 C   0  0  0  0  0  0  0  0  0  0  0  0
    4.5842   -0.9796    1.0811 C   0  0  0  0  0  0  0  0  0  0  0  0
    5.0188   -1.9522    2.0182 O   0  0  0  0  0  0  0  0  0  0  0  0
    0.5508    0.6871   -0.7206 H   0  0  0  0  0  0  0  0  0  0  0  0
    0.5666    0.3259    1.0125 H   0  0  0  0  0  0  0  0  0  0  0  0
    0.6242   -0.9811   -0.1896 H   0  0  0  0  0  0  0  0  0  0  0  0
    2.8681   -0.1795   -0.9476 H   0  0  0  0  0  0  0  0  0  0  0  0
    4.1077    1.5273    0.3999 H   0  0  0  0  0  0  0  0  0  0  0  0
    2.6886    1.7726    1.4154 H   0  0  0  0  0  0  0  0  0  0  0  0
    1.4418    2.5591   -0.6039 H   0  0  0  0  0  0  0  0  0  0  0  0
    2.8850    2.2266   -1.5984 H   0  0  0  0  0  0  0  0  0  0  0  0
    3.6533    4.0250    0.5952 H   0  0  0  0  0  0  0  0  0  0  0  0
    1.5059    3.8302   -2.4769 H   0  0  0  0  0  0  0  0  0  0  0  0
    2.3876    5.1869   -3.1520 H   0  0  0  0  0  0  0  0  0  0  0  0
    0.9317    5.4549   -2.1510 H   0  0  0  0  0  0  0  0  0  0  0  0
    3.8070    6.3242    0.2227 H   0  0  0  0  0  0  0  0  0  0  0  0
    2.3453    7.0017   -0.5036 H   0  0  0  0  0  0  0  0  0  0  0  0
    3.8024    6.7391   -1.4960 H   0  0  0  0  0  0  0  0  0  0  0  0
    2.6771   -1.9347    0.8192 H   0  0  0  0  0  0  0  0  0  0  0  0
    2.6856   -0.7097    2.0666 H   0  0  0  0  0  0  0  0  0  0  0  0
    5.0232   -0.0249    1.3819 H   0  0  0  0  0  0  0  0  0  0  0  0
    4.9771   -1.2402    0.0934 H   0  0  0  0  0  0  0  0  0  0  0  0
    4.7132   -1.6554    2.8928 H   0  0  0  0  0  0  0  0  0  0  0  0
  1  2  1  0  0  0  0
  1 12  1  0  0  0  0
  1 13  1  0  0  0  0
  1 14  1  0  0  0  0
  2  3  1  0  0  0  0
  2  9  1  0  0  0  0
  2 15  1  6  0  0  0
  3  4  1  0  0  0  0
  3 16  1  0  0  0  0
  3 17  1  0  0  0  0
  4  5  1  0  0  0  0
  4 18  1  0  0  0  0
  4 19  1  0  0  0  0
  5  6  2  0  0  0  0
  5 20  1  0  0  0  0
  6  7  1  0  0  0  0
  6  8  1  0  0  0  0
  7 21  1  0  0  0  0
  7 22  1  0  0  0  0
  7 23  1  0  0  0  0
  8 24  1  0  0  0  0
  8 25  1  0  0  0  0
  8 26  1  0  0  0  0
  9 10  1  0  0  0  0
  9 27  1  0  0  0  0
  9 28  1  0  0  0  0
 10 11  1  0  0  0  0
 10 29  1  0  0  0  0
 10 30  1  0  0  0  0
 11 31  1  0  0  0  0
M  END
$$$$
