
 OpenBabel07222214433D

 22 21  0  0  0  0  0  0  0  0999 V2000
    1.0628    0.0374    0.0283 C   0  0  0  0  0  0  0  0  0  0  0  0
    2.5800    0.0442    0.0354 C   0  0  0  0  0  0  0  0  0  0  0  0
    3.1062    1.0299    1.0722 C   0  0  0  0  0  0  0  0  0  0  0  0
    4.6294    1.0405    1.0834 C   0  0  0  0  0  0  0  0  0  0  0  0
    5.1547    2.0266    2.1206 C   0  0  0  0  0  0  0  0  0  0  0  0
    6.6767    2.0327    2.1270 C   0  0  0  0  0  0  0  0  0  0  0  0
    7.2092    3.0016    3.1462 C   0  0  0  0  0  0  0  0  0  0  0  0
    8.4115    3.1758    3.3294 O   0  0  0  0  0  0  0  0  0  0  0  0
    0.6893   -0.6706   -0.7164 H   0  0  0  0  0  0  0  0  0  0  0  0
    0.6724    1.0310   -0.2141 H   0  0  0  0  0  0  0  0  0  0  0  0
    0.6724   -0.2549    1.0083 H   0  0  0  0  0  0  0  0  0  0  0  0
    2.9498    0.3157   -0.9603 H   0  0  0  0  0  0  0  0  0  0  0  0
    2.9498   -0.9640    0.2563 H   0  0  0  0  0  0  0  0  0  0  0  0
    2.7315    0.7573    2.0665 H   0  0  0  0  0  0  0  0  0  0  0  0
    2.7315    2.0367    0.8502 H   0  0  0  0  0  0  0  0  0  0  0  0
    5.0042    1.3136    0.0893 H   0  0  0  0  0  0  0  0  0  0  0  0
    5.0042    0.0339    1.3059 H   0  0  0  0  0  0  0  0  0  0  0  0
    4.7769    1.7582    3.1154 H   0  0  0  0  0  0  0  0  0  0  0  0
    4.7768    3.0337    1.9027 H   0  0  0  0  0  0  0  0  0  0  0  0
    7.0554    2.3282    1.1431 H   0  0  0  0  0  0  0  0  0  0  0  0
    7.0554    1.0351    2.3724 H   0  0  0  0  0  0  0  0  0  0  0  0
    6.4647    3.5623    3.7359 H   0  0  0  0  0  0  0  0  0  0  0  0
  1  2  1  0  0  0  0
  1  9  1  0  0  0  0
  1 10  1  0  0  0  0
  1 11  1  0  0  0  0
  2  3  1  0  0  0  0
  2 12  1  0  0  0  0
  2 13  1  0  0  0  0
  3  4  1  0  0  0  0
  3 14  1  0  0  0  0
  3 15  1  0  0  0  0
  4  5  1  0  0  0  0
  4 16  1  0  0  0  0
  4 17  1  0  0  0  0
  5  6  1  0  0  0  0
  5 18  1  0  0  0  0
  5 19  1  0  0  0  0
  6  7  1  0  0  0  0
  6 20  1  0  0  0  0
  6 21  1  0  0  0  0
  7  8  2  0  0  0  0
  7 22  1  0  0  0  0
M  END
$$$$
