
 OpenBabel07202215583D

 24 24  0  0  0  0  0  0  0  0999 V2000
    1.0384   -0.0120    0.0895 C   0  0  0  0  0  0  0  0  0  0  0  0
    2.5560   -0.0061    0.1028 C   0  0  0  0  0  0  0  0  0  0  0  0
    3.1077    1.0633    1.0473 C   0  0  0  0  0  0  0  0  0  0  0  0
    4.6241    1.0597    1.0431 C   0  0  0  0  0  0  0  0  0  0  0  0
    5.2954    0.2938    0.3538 O   0  0  0  0  0  0  0  0  0  0  0  0
    5.3255    2.0936    1.8404 C   0  0  0  0  0  0  0  0  0  0  0  0
    5.0038    2.3656    3.1758 C   0  0  0  0  0  0  0  0  0  0  0  0
    5.7043    3.3641    3.8687 C   0  0  0  0  0  0  0  0  0  0  0  0
    6.7085    4.0782    3.2164 C   0  0  0  0  0  0  0  0  0  0  0  0
    7.0303    3.8063    1.8919 C   0  0  0  0  0  0  0  0  0  0  0  0
    6.3479    2.8049    1.2053 C   0  0  0  0  0  0  0  0  0  0  0  0
    7.4192    5.0648    3.8331 O   0  0  0  0  0  0  0  0  0  0  0  0
    0.6684   -0.7912   -0.5842 H   0  0  0  0  0  0  0  0  0  0  0  0
    0.6475    0.9505   -0.2548 H   0  0  0  0  0  0  0  0  0  0  0  0
    0.6417   -0.2091    1.0901 H   0  0  0  0  0  0  0  0  0  0  0  0
    2.9251    0.1650   -0.9163 H   0  0  0  0  0  0  0  0  0  0  0  0
    2.9197   -0.9950    0.4076 H   0  0  0  0  0  0  0  0  0  0  0  0
    2.7427    0.8810    2.0626 H   0  0  0  0  0  0  0  0  0  0  0  0
    2.7650    2.0515    0.7174 H   0  0  0  0  0  0  0  0  0  0  0  0
    4.2358    1.7972    3.6937 H   0  0  0  0  0  0  0  0  0  0  0  0
    5.4561    3.5687    4.9064 H   0  0  0  0  0  0  0  0  0  0  0  0
    7.8119    4.3723    1.3940 H   0  0  0  0  0  0  0  0  0  0  0  0
    6.6065    2.5850    0.1720 H   0  0  0  0  0  0  0  0  0  0  0  0
    7.1355    5.1442    4.7577 H   0  0  0  0  0  0  0  0  0  0  0  0
  1  2  1  0  0  0  0
  1 13  1  0  0  0  0
  1 14  1  0  0  0  0
  1 15  1  0  0  0  0
  2  3  1  0  0  0  0
  2 16  1  0  0  0  0
  2 17  1  0  0  0  0
  3  4  1  0  0  0  0
  3 18  1  0  0  0  0
  3 19  1  0  0  0  0
  4  5  2  0  0  0  0
  4  6  1  0  0  0  0
  6  7  2  0  0  0  0
  6 11  1  0  0  0  0
  7  8  1  0  0  0  0
  7 20  1  0  0  0  0
  8  9  2  0  0  0  0
  8 21  1  0  0  0  0
  9 10  1  0  0  0  0
  9 12  1  0  0  0  0
 10 11  2  0  0  0  0
 10 22  1  0  0  0  0
 11 23  1  0  0  0  0
 12 24  1  0  0  0  0
M  END
$$$$
