
 OpenBabel07222214433D

 32 31  0  0  0  0  0  0  0  0999 V2000
    0.9344    0.0385   -0.0622 C   0  0  0  0  0  0  0  0  0  0  0  0
    2.4532    0.0461   -0.0717 C   0  0  0  0  0  0  0  0  0  0  0  0
    2.9830    0.9397   -1.1909 C   0  0  0  0  0  0  0  0  0  0  0  0
    4.5099    0.9547   -1.2097 C   0  0  0  0  0  0  0  0  0  0  0  0
    5.0411    1.8502   -2.3312 C   0  0  0  0  0  0  0  0  0  0  0  0
    6.5673    1.8672   -2.3525 C   0  0  0  0  0  0  0  0  0  0  0  0
    7.0377    2.7166   -3.4164 O   0  0  0  0  0  0  0  0  0  0  0  0
    8.4008    2.7771   -3.4921 C   0  0  0  0  0  0  0  0  0  0  0  0
    9.1592    2.1761   -2.7394 O   0  0  0  0  0  0  0  0  0  0  0  0
    8.8565    3.6796   -4.6225 C   0  0  0  0  0  0  0  0  0  0  0  0
   10.3875    3.7285   -4.6837 C   0  0  0  0  0  0  0  0  0  0  0  0
   10.9026    4.6201   -5.8004 C   0  0  0  0  0  0  0  0  0  0  0  0
    0.5610   -0.6030    0.7412 H   0  0  0  0  0  0  0  0  0  0  0  0
    0.5422   -0.3381   -1.0123 H   0  0  0  0  0  0  0  0  0  0  0  0
    0.5422    1.0484    0.0947 H   0  0  0  0  0  0  0  0  0  0  0  0
    2.8212   -0.9782   -0.2037 H   0  0  0  0  0  0  0  0  0  0  0  0
    2.8212    0.4015    0.8979 H   0  0  0  0  0  0  0  0  0  0  0  0
    2.6056    1.9606   -1.0549 H   0  0  0  0  0  0  0  0  0  0  0  0
    2.6056    0.5811   -2.1564 H   0  0  0  0  0  0  0  0  0  0  0  0
    4.8829   -0.0685   -1.3423 H   0  0  0  0  0  0  0  0  0  0  0  0
    4.8829    1.3104   -0.2413 H   0  0  0  0  0  0  0  0  0  0  0  0
    4.6634    2.8722   -2.2063 H   0  0  0  0  0  0  0  0  0  0  0  0
    4.6634    1.5022   -3.3003 H   0  0  0  0  0  0  0  0  0  0  0  0
    6.9405    0.8479   -2.5099 H   0  0  0  0  0  0  0  0  0  0  0  0
    6.9405    2.2463   -1.3933 H   0  0  0  0  0  0  0  0  0  0  0  0
    8.4626    4.6884   -4.4558 H   0  0  0  0  0  0  0  0  0  0  0  0
    8.4626    3.2939   -5.5693 H   0  0  0  0  0  0  0  0  0  0  0  0
   10.7848    2.7157   -4.8250 H   0  0  0  0  0  0  0  0  0  0  0  0
   10.7848    4.0905   -3.7272 H   0  0  0  0  0  0  0  0  0  0  0  0
   10.5626    4.2631   -6.7771 H   0  0  0  0  0  0  0  0  0  0  0  0
   11.9981    4.6234   -5.8044 H   0  0  0  0  0  0  0  0  0  0  0  0
   10.5626    5.6517   -5.6683 H   0  0  0  0  0  0  0  0  0  0  0  0
  1  2  1  0  0  0  0
  1 13  1  0  0  0  0
  1 14  1  0  0  0  0
  1 15  1  0  0  0  0
  2  3  1  0  0  0  0
  2 16  1  0  0  0  0
  2 17  1  0  0  0  0
  3  4  1  0  0  0  0
  3 18  1  0  0  0  0
  3 19  1  0  0  0  0
  4  5  1  0  0  0  0
  4 20  1  0  0  0  0
  4 21  1  0  0  0  0
  5  6  1  0  0  0  0
  5 22  1  0  0  0  0
  5 23  1  0  0  0  0
  6  7  1  0  0  0  0
  6 24  1  0  0  0  0
  6 25  1  0  0  0  0
  7  8  1  0  0  0  0
  8  9  2  0  0  0  0
  8 10  1  0  0  0  0
 10 11  1  0  0  0  0
 10 26  1  0  0  0  0
 10 27  1  0  0  0  0
 11 12  1  0  0  0  0
 11 28  1  0  0  0  0
 11 29  1  0  0  0  0
 12 30  1  0  0  0  0
 12 31  1  0  0  0  0
 12 32  1  0  0  0  0
M  END
$$$$
