
 OpenBabel07222214443D

 44 43  0  0  0  0  0  0  0  0999 V2000
    1.0613    0.0912    0.0934 C   0  0  0  0  0  0  0  0  0  0  0  0
    2.5795    0.1050    0.1083 C   0  0  0  0  0  0  0  0  0  0  0  0
    3.0529    1.0283    1.1056 O   0  0  0  0  0  0  0  0  0  0  0  0
    4.4151    1.0938    1.1764 C   0  0  0  0  0  0  0  0  0  0  0  0
    5.1740    0.4396    0.4697 O   0  0  0  0  0  0  0  0  0  0  0  0
    4.8697    2.0763    2.2377 C   0  0  0  0  0  0  0  0  0  0  0  0
    6.3994    2.1240    2.2892 C   0  0  0  0  0  0  0  0  0  0  0  0
    6.9215    3.0971    3.3403 C   0  0  0  0  0  0  0  0  0  0  0  0
    8.4497    3.1038    3.3476 C   0  0  0  0  0  0  0  0  0  0  0  0
    8.9830    4.0736    4.3951 C   0  0  0  0  0  0  0  0  0  0  0  0
   10.5112    4.0803    4.4023 C   0  0  0  0  0  0  0  0  0  0  0  0
   11.0333    5.0534    5.4535 C   0  0  0  0  0  0  0  0  0  0  0  0
   12.5631    5.1010    5.5050 C   0  0  0  0  0  0  0  0  0  0  0  0
   13.0177    6.0835    6.5662 C   0  0  0  0  0  0  0  0  0  0  0  0
   12.2588    6.7378    7.2729 O   0  0  0  0  0  0  0  0  0  0  0  0
   14.3798    6.1491    6.6370 O   0  0  0  0  0  0  0  0  0  0  0  0
   14.8532    7.0723    7.6343 C   0  0  0  0  0  0  0  0  0  0  0  0
   16.3715    7.0862    7.6493 C   0  0  0  0  0  0  0  0  0  0  0  0
    0.6878   -0.6083   -0.6622 H   0  0  0  0  0  0  0  0  0  0  0  0
    0.6643    1.0867   -0.1285 H   0  0  0  0  0  0  0  0  0  0  0  0
    0.6643   -0.2066    1.0688 H   0  0  0  0  0  0  0  0  0  0  0  0
    2.9458    0.4101   -0.8791 H   0  0  0  0  0  0  0  0  0  0  0  0
    2.9458   -0.9029    0.3365 H   0  0  0  0  0  0  0  0  0  0  0  0
    4.4786    1.7616    3.2115 H   0  0  0  0  0  0  0  0  0  0  0  0
    4.4786    3.0715    1.9989 H   0  0  0  0  0  0  0  0  0  0  0  0
    6.7905    2.4118    1.3047 H   0  0  0  0  0  0  0  0  0  0  0  0
    6.7905    1.1203    2.5003 H   0  0  0  0  0  0  0  0  0  0  0  0
    6.5504    2.8104    4.3314 H   0  0  0  0  0  0  0  0  0  0  0  0
    6.5504    4.1073    3.1308 H   0  0  0  0  0  0  0  0  0  0  0  0
    8.8251    3.3894    2.3570 H   0  0  0  0  0  0  0  0  0  0  0  0
    8.8251    2.0942    3.5560 H   0  0  0  0  0  0  0  0  0  0  0  0
    8.6076    3.7880    5.3856 H   0  0  0  0  0  0  0  0  0  0  0  0
    8.6076    5.0831    4.1866 H   0  0  0  0  0  0  0  0  0  0  0  0
   10.8824    4.3669    3.4112 H   0  0  0  0  0  0  0  0  0  0  0  0
   10.8824    3.0701    4.6118 H   0  0  0  0  0  0  0  0  0  0  0  0
   10.6422    4.7656    6.4379 H   0  0  0  0  0  0  0  0  0  0  0  0
   10.6422    6.0571    5.2423 H   0  0  0  0  0  0  0  0  0  0  0  0
   12.9541    5.4158    4.5311 H   0  0  0  0  0  0  0  0  0  0  0  0
   12.9541    4.1059    5.7438 H   0  0  0  0  0  0  0  0  0  0  0  0
   14.4869    6.7673    8.6217 H   0  0  0  0  0  0  0  0  0  0  0  0
   14.4869    8.0803    7.4062 H   0  0  0  0  0  0  0  0  0  0  0  0
   16.7684    6.0907    7.8711 H   0  0  0  0  0  0  0  0  0  0  0  0
   16.7450    7.7857    8.4049 H   0  0  0  0  0  0  0  0  0  0  0  0
   16.7684    7.3840    6.6738 H   0  0  0  0  0  0  0  0  0  0  0  0
  1  2  1  0  0  0  0
  1 19  1  0  0  0  0
  1 20  1  0  0  0  0
  1 21  1  0  0  0  0
  2  3  1  0  0  0  0
  2 22  1  0  0  0  0
  2 23  1  0  0  0  0
  3  4  1  0  0  0  0
  4  5  2  0  0  0  0
  4  6  1  0  0  0  0
  6  7  1  0  0  0  0
  6 24  1  0  0  0  0
  6 25  1  0  0  0  0
  7  8  1  0  0  0  0
  7 26  1  0  0  0  0
  7 27  1  0  0  0  0
  8  9  1  0  0  0  0
  8 28  1  0  0  0  0
  8 29  1  0  0  0  0
  9 10  1  0  0  0  0
  9 30  1  0  0  0  0
  9 31  1  0  0  0  0
 10 11  1  0  0  0  0
 10 32  1  0  0  0  0
 10 33  1  0  0  0  0
 11 12  1  0  0  0  0
 11 34  1  0  0  0  0
 11 35  1  0  0  0  0
 12 13  1  0  0  0  0
 12 36  1  0  0  0  0
 12 37  1  0  0  0  0
 13 14  1  0  0  0  0
 13 38  1  0  0  0  0
 13 39  1  0  0  0  0
 14 15  2  0  0  0  0
 14 16  1  0  0  0  0
 16 17  1  0  0  0  0
 17 18  1  0  0  0  0
 17 40  1  0  0  0  0
 17 41  1  0  0  0  0
 18 42  1  0  0  0  0
 18 43  1  0  0  0  0
 18 44  1  0  0  0  0
M  END
$$$$
