
 OpenBabel07222214443D

 17 16  0  0  0  0  0  0  0  0999 V2000
    0.9654    0.0862   -0.0140 C   0  0  0  0  0  0  0  0  0  0  0  0
    2.4878    0.1101   -0.0218 C   0  0  0  0  0  0  0  0  0  0  0  0
    3.0266    1.4706   -0.4633 C   0  0  0  0  0  0  0  0  0  0  0  0
    4.4665    1.4555   -0.4584 O   0  0  0  0  0  0  0  0  0  0  0  0
    5.0328    2.6359   -0.8414 C   0  0  0  0  0  0  0  0  0  0  0  0
    4.4097    3.6402   -1.1673 O   0  0  0  0  0  0  0  0  0  0  0  0
    6.5342    2.5769   -0.8222 C   0  0  0  0  0  0  0  0  0  0  0  0
    0.5960   -0.8944    0.3042 H   0  0  0  0  0  0  0  0  0  0  0  0
    0.5637    0.2894   -1.0122 H   0  0  0  0  0  0  0  0  0  0  0  0
    0.5637    0.8368    0.6747 H   0  0  0  0  0  0  0  0  0  0  0  0
    2.8652   -0.6743   -0.6884 H   0  0  0  0  0  0  0  0  0  0  0  0
    2.8652   -0.1334    0.9784 H   0  0  0  0  0  0  0  0  0  0  0  0
    2.6704    2.2455    0.2260 H   0  0  0  0  0  0  0  0  0  0  0  0
    2.6704    1.6931   -1.4762 H   0  0  0  0  0  0  0  0  0  0  0  0
    6.8964    1.5958   -0.5039 H   0  0  0  0  0  0  0  0  0  0  0  0
    6.9172    3.3288   -0.1261 H   0  0  0  0  0  0  0  0  0  0  0  0
    6.9172    2.7768   -1.8273 H   0  0  0  0  0  0  0  0  0  0  0  0
  1  2  1  0  0  0  0
  1  8  1  0  0  0  0
  1  9  1  0  0  0  0
  1 10  1  0  0  0  0
  2  3  1  0  0  0  0
  2 11  1  0  0  0  0
  2 12  1  0  0  0  0
  3  4  1  0  0  0  0
  3 13  1  0  0  0  0
  3 14  1  0  0  0  0
  4  5  1  0  0  0  0
  5  6  2  0  0  0  0
  5  7  1  0  0  0  0
  7 15  1  0  0  0  0
  7 16  1  0  0  0  0
  7 17  1  0  0  0  0
M  END
$$$$
