
 OpenBabel07222214433D

 19 19  0  0  0  0  0  0  0  0999 V2000
    1.0320    0.1079    0.0836 C   0  0  0  0  0  0  0  0  0  0  0  0
    2.5545    0.0002    0.0890 C   0  0  0  0  0  0  0  0  0  0  0  0
    3.0269   -1.3388    0.6050 C   0  0  0  0  0  0  0  0  0  0  0  0
    2.4546   -2.5279    0.1298 C   0  0  0  0  0  0  0  0  0  0  0  0
    2.8352   -3.7665    0.6436 C   0  0  0  0  0  0  0  0  0  0  0  0
    3.8287   -3.8206    1.6134 C   0  0  0  0  0  0  0  0  0  0  0  0
    4.2326   -5.0112    2.1413 O   0  0  0  0  0  0  0  0  0  0  0  0
    4.4410   -2.6614    2.0692 C   0  0  0  0  0  0  0  0  0  0  0  0
    4.0465   -1.4188    1.5653 C   0  0  0  0  0  0  0  0  0  0  0  0
    0.7133    1.0948   -0.2618 H   0  0  0  0  0  0  0  0  0  0  0  0
    0.6286   -0.0569    1.0889 H   0  0  0  0  0  0  0  0  0  0  0  0
    0.5736   -0.6304   -0.5824 H   0  0  0  0  0  0  0  0  0  0  0  0
    2.9538    0.8085    0.7143 H   0  0  0  0  0  0  0  0  0  0  0  0
    2.9481    0.1535   -0.9227 H   0  0  0  0  0  0  0  0  0  0  0  0
    1.6866   -2.5022   -0.6396 H   0  0  0  0  0  0  0  0  0  0  0  0
    2.3420   -4.6604    0.2803 H   0  0  0  0  0  0  0  0  0  0  0  0
    3.7322   -5.7222    1.7104 H   0  0  0  0  0  0  0  0  0  0  0  0
    5.2205   -2.7232    2.8244 H   0  0  0  0  0  0  0  0  0  0  0  0
    4.5311   -0.5202    1.9385 H   0  0  0  0  0  0  0  0  0  0  0  0
  1  2  1  0  0  0  0
  1 10  1  0  0  0  0
  1 11  1  0  0  0  0
  1 12  1  0  0  0  0
  2  3  1  0  0  0  0
  2 13  1  0  0  0  0
  2 14  1  0  0  0  0
  3  4  1  0  0  0  0
  3  9  2  0  0  0  0
  4  5  2  0  0  0  0
  4 15  1  0  0  0  0
  5  6  1  0  0  0  0
  5 16  1  0  0  0  0
  6  7  1  0  0  0  0
  6  8  2  0  0  0  0
  7 17  1  0  0  0  0
  8  9  1  0  0  0  0
  8 18  1  0  0  0  0
  9 19  1  0  0  0  0
M  END
$$$$
