
 OpenBabel07202215583D

 19 20  0  0  0  0  0  0  0  0999 V2000
   -1.7668   -1.9863    0.0838 O   0  0  0  0  0  0  0  0  0  0  0  0
   -1.3865   -0.8301   -0.0544 C   0  0  0  0  0  0  0  0  0  0  0  0
   -2.3270    0.3048   -0.3400 C   0  0  0  0  0  0  0  0  0  0  0  0
   -1.7966    1.5528    0.3344 C   0  0  0  0  0  0  0  0  0  0  0  0
   -0.4729    1.8960   -0.0842 O   0  0  0  0  0  0  0  0  0  0  0  0
    0.4177    0.8586   -0.0177 C   0  0  0  0  0  0  0  0  0  0  0  0
    1.7705    1.1989    0.0059 C   0  0  0  0  0  0  0  0  0  0  0  0
    2.7455    0.1982    0.0206 C   0  0  0  0  0  0  0  0  0  0  0  0
    2.3705   -1.1460    0.0031 C   0  0  0  0  0  0  0  0  0  0  0  0
    1.0186   -1.4918   -0.0039 C   0  0  0  0  0  0  0  0  0  0  0  0
    0.0469   -0.4858   -0.0137 C   0  0  0  0  0  0  0  0  0  0  0  0
   -3.3179    0.0618    0.0567 H   0  0  0  0  0  0  0  0  0  0  0  0
   -2.3942    0.4282   -1.4259 H   0  0  0  0  0  0  0  0  0  0  0  0
   -1.8103    1.4561    1.4272 H   0  0  0  0  0  0  0  0  0  0  0  0
   -2.4411    2.4003    0.0765 H   0  0  0  0  0  0  0  0  0  0  0  0
    2.0684    2.2443    0.0189 H   0  0  0  0  0  0  0  0  0  0  0  0
    3.7991    0.4677    0.0421 H   0  0  0  0  0  0  0  0  0  0  0  0
    3.1306   -1.9238   -0.0062 H   0  0  0  0  0  0  0  0  0  0  0  0
    0.7259   -2.5395   -0.0153 H   0  0  0  0  0  0  0  0  0  0  0  0
  1  2  2  0  0  0  0
  2  3  1  0  0  0  0
  2 11  1  0  0  0  0
  3  4  1  0  0  0  0
  3 12  1  0  0  0  0
  3 13  1  0  0  0  0
  4  5  1  0  0  0  0
  4 14  1  0  0  0  0
  4 15  1  0  0  0  0
  5  6  1  0  0  0  0
  6  7  1  0  0  0  0
  6 11  2  0  0  0  0
  7  8  2  0  0  0  0
  7 16  1  0  0  0  0
  8  9  1  0  0  0  0
  8 17  1  0  0  0  0
  9 10  2  0  0  0  0
  9 18  1  0  0  0  0
 10 11  1  0  0  0  0
 10 19  1  0  0  0  0
M  END
$$$$
