
 OpenBabel07222214433D

 17 17  0  0  0  0  0  0  0  0999 V2000
    0.9731    0.0000    0.0626 C   0  0  0  0  0  0  0  0  0  0  0  0
    2.3936    0.0268    0.0789 O   0  0  0  0  0  0  0  0  0  0  0  0
    2.9954    1.2587    0.0726 C   0  0  0  0  0  0  0  0  0  0  0  0
    4.3963    1.1923    0.0552 C   0  0  0  0  0  0  0  0  0  0  0  0
    5.1693    2.3555    0.0345 C   0  0  0  0  0  0  0  0  0  0  0  0
    4.5478    3.5996    0.0326 C   0  0  0  0  0  0  0  0  0  0  0  0
    3.1553    3.6832    0.0597 C   0  0  0  0  0  0  0  0  0  0  0  0
    2.3824    2.5175    0.0819 C   0  0  0  0  0  0  0  0  0  0  0  0
    1.0203    2.6505    0.1146 O   0  0  0  0  0  0  0  0  0  0  0  0
    0.6523   -1.0453    0.0496 H   0  0  0  0  0  0  0  0  0  0  0  0
    0.5791    0.4684   -0.8458 H   0  0  0  0  0  0  0  0  0  0  0  0
    0.5624    0.4500    0.9725 H   0  0  0  0  0  0  0  0  0  0  0  0
    4.8889    0.2229    0.0563 H   0  0  0  0  0  0  0  0  0  0  0  0
    6.2544    2.2860    0.0185 H   0  0  0  0  0  0  0  0  0  0  0  0
    5.1458    4.5071    0.0113 H   0  0  0  0  0  0  0  0  0  0  0  0
    2.6885    4.6625    0.0620 H   0  0  0  0  0  0  0  0  0  0  0  0
    0.7839    3.5896    0.1416 H   0  0  0  0  0  0  0  0  0  0  0  0
  1  2  1  0  0  0  0
  1 10  1  0  0  0  0
  1 11  1  0  0  0  0
  1 12  1  0  0  0  0
  2  3  1  0  0  0  0
  3  4  1  0  0  0  0
  3  8  2  0  0  0  0
  4  5  2  0  0  0  0
  4 13  1  0  0  0  0
  5  6  1  0  0  0  0
  5 14  1  0  0  0  0
  6  7  2  0  0  0  0
  6 15  1  0  0  0  0
  7  8  1  0  0  0  0
  7 16  1  0  0  0  0
  8  9  1  0  0  0  0
  9 17  1  0  0  0  0
M  END
$$$$
