
 OpenBabel07122215493D

 26 25  0  0  0  0  0  0  0  0999 V2000
    0.9642   -0.0810    0.0610 C   0  0  0  0  0  0  0  0  0  0  0  0
    2.4784   -0.0900    0.0634 C   0  0  0  0  0  0  0  0  0  0  0  0
    3.0341   -1.4384    0.4228 C   0  0  0  0  0  0  0  0  0  0  0  0
    4.3525   -1.6767    0.4863 C   0  0  0  0  0  0  0  0  0  0  0  0
    5.3665   -0.6095    0.2018 C   0  0  0  0  0  0  0  0  0  0  0  0
    6.7894   -1.1241    0.3390 C   0  0  0  0  0  0  0  0  0  0  0  0
    7.7844   -0.0074    0.0413 C   0  0  0  0  0  0  0  0  0  0  0  0
    9.2083   -0.5226    0.1787 C   0  0  0  0  0  0  0  0  0  0  0  0
   10.2073    0.5621   -0.1105 C   0  0  0  0  0  0  0  0  0  0  0  0
   11.4209    0.3737   -0.0602 O   0  0  0  0  0  0  0  0  0  0  0  0
    0.5987    0.9153   -0.2046 H   0  0  0  0  0  0  0  0  0  0  0  0
    0.5723   -0.3398    1.0495 H   0  0  0  0  0  0  0  0  0  0  0  0
    0.5723   -0.7975   -0.6677 H   0  0  0  0  0  0  0  0  0  0  0  0
    2.8349    0.6578    0.7820 H   0  0  0  0  0  0  0  0  0  0  0  0
    2.8349    0.2009   -0.9322 H   0  0  0  0  0  0  0  0  0  0  0  0
    2.3413   -2.2488    0.6388 H   0  0  0  0  0  0  0  0  0  0  0  0
    4.6997   -2.6731    0.7519 H   0  0  0  0  0  0  0  0  0  0  0  0
    5.2199    0.2261    0.8975 H   0  0  0  0  0  0  0  0  0  0  0  0
    5.2199   -0.2310   -0.8175 H   0  0  0  0  0  0  0  0  0  0  0  0
    6.9502   -1.9601   -0.3528 H   0  0  0  0  0  0  0  0  0  0  0  0
    6.9502   -1.5049    1.3551 H   0  0  0  0  0  0  0  0  0  0  0  0
    7.6203    0.8337    0.7274 H   0  0  0  0  0  0  0  0  0  0  0  0
    7.6203    0.3806   -0.9724 H   0  0  0  0  0  0  0  0  0  0  0  0
    9.3785   -1.3430   -0.5261 H   0  0  0  0  0  0  0  0  0  0  0  0
    9.3785   -0.8834    1.1982 H   0  0  0  0  0  0  0  0  0  0  0  0
    9.8037    1.5536   -0.3747 H   0  0  0  0  0  0  0  0  0  0  0  0
  1  2  1  0  0  0  0
  1 11  1  0  0  0  0
  1 12  1  0  0  0  0
  1 13  1  0  0  0  0
  2  3  1  0  0  0  0
  2 14  1  0  0  0  0
  2 15  1  0  0  0  0
  3  4  2  0  0  0  0
  3 16  1  0  0  0  0
  4  5  1  0  0  0  0
  4 17  1  0  0  0  0
  5  6  1  0  0  0  0
  5 18  1  0  0  0  0
  5 19  1  0  0  0  0
  6  7  1  0  0  0  0
  6 20  1  0  0  0  0
  6 21  1  0  0  0  0
  7  8  1  0  0  0  0
  7 22  1  0  0  0  0
  7 23  1  0  0  0  0
  8  9  1  0  0  0  0
  8 24  1  0  0  0  0
  8 25  1  0  0  0  0
  9 10  2  0  0  0  0
  9 26  1  0  0  0  0
M  END
$$$$
