
 OpenBabel07222214433D

 25 24  0  0  0  0  0  0  0  0999 V2000
    0.9104   -0.0108    0.0866 C   0  0  0  0  0  0  0  0  0  0  0  0
    2.4268   -0.0026    0.0813 C   0  0  0  0  0  0  0  0  0  0  0  0
    2.9513    1.1246   -0.7991 C   0  0  0  0  0  0  0  0  0  0  0  0
    4.4728    1.1315   -0.8069 C   0  0  0  0  0  0  0  0  0  0  0  0
    4.9986    2.2578   -1.6924 C   0  0  0  0  0  0  0  0  0  0  0  0
    6.5262    2.2734   -1.7071 C   0  0  0  0  0  0  0  0  0  0  0  0
    7.0156    1.0289   -2.1956 O   0  0  0  0  0  0  0  0  0  0  0  0
    7.0602    3.3723   -2.5759 C   0  0  0  0  0  0  0  0  0  0  0  0
    8.3717    3.5942   -2.7451 C   0  0  0  0  0  0  0  0  0  0  0  0
    0.5376   -0.8203    0.7198 H   0  0  0  0  0  0  0  0  0  0  0  0
    0.5207   -0.1569   -0.9259 H   0  0  0  0  0  0  0  0  0  0  0  0
    0.5200    0.9367    0.4714 H   0  0  0  0  0  0  0  0  0  0  0  0
    2.7978   -0.9670   -0.2855 H   0  0  0  0  0  0  0  0  0  0  0  0
    2.7977    0.1202    1.1056 H   0  0  0  0  0  0  0  0  0  0  0  0
    2.5787    2.0890   -0.4330 H   0  0  0  0  0  0  0  0  0  0  0  0
    2.5781    1.0006   -1.8233 H   0  0  0  0  0  0  0  0  0  0  0  0
    4.8383    0.1635   -1.1699 H   0  0  0  0  0  0  0  0  0  0  0  0
    4.8507    1.2586    0.2149 H   0  0  0  0  0  0  0  0  0  0  0  0
    4.6174    3.2211   -1.3299 H   0  0  0  0  0  0  0  0  0  0  0  0
    4.6127    2.1155   -2.7105 H   0  0  0  0  0  0  0  0  0  0  0  0
    6.8958    2.4029   -0.6831 H   0  0  0  0  0  0  0  0  0  0  0  0
    6.6910    0.9327   -3.1066 H   0  0  0  0  0  0  0  0  0  0  0  0
    6.3477    4.0288   -3.0685 H   0  0  0  0  0  0  0  0  0  0  0  0
    9.1057    2.9608   -2.2551 H   0  0  0  0  0  0  0  0  0  0  0  0
    8.7286    4.4047   -3.3690 H   0  0  0  0  0  0  0  0  0  0  0  0
  1  2  1  0  0  0  0
  1 10  1  0  0  0  0
  1 11  1  0  0  0  0
  1 12  1  0  0  0  0
  2  3  1  0  0  0  0
  2 13  1  0  0  0  0
  2 14  1  0  0  0  0
  3  4  1  0  0  0  0
  3 15  1  0  0  0  0
  3 16  1  0  0  0  0
  4  5  1  0  0  0  0
  4 17  1  0  0  0  0
  4 18  1  0  0  0  0
  5  6  1  0  0  0  0
  5 19  1  0  0  0  0
  5 20  1  0  0  0  0
  6  7  1  0  0  0  0
  6  8  1  0  0  0  0
  6 21  1  0  0  0  0
  7 22  1  0  0  0  0
  8  9  2  0  0  0  0
  8 23  1  0  0  0  0
  9 24  1  0  0  0  0
  9 25  1  0  0  0  0
M  END
$$$$
