
 OpenBabel07202215583D

 29 28  0  0  1  0  0  0  0  0999 V2000
    3.0368   -1.0113   -0.9376 C   0  0  0  0  0  0  0  0  0  0  0  0
    2.5620    0.0688    0.0352 C   0  0  2  0  0  0  0  0  0  0  0  0
    1.0216    0.0610    0.0561 C   0  0  0  0  0  0  0  0  0  0  0  0
    0.4709    1.0928    1.0274 C   0  0  0  0  0  0  0  0  0  0  0  0
   -1.0211    1.1246    1.0703 C   0  0  0  0  0  0  0  0  0  0  0  0
   -1.6952    1.9937    1.8445 C   0  0  0  0  0  0  0  0  0  0  0  0
   -1.0070    2.9898    2.7432 C   0  0  0  0  0  0  0  0  0  0  0  0
   -3.1952    2.0139    1.8483 C   0  0  0  0  0  0  0  0  0  0  0  0
    3.1083    1.4508   -0.3617 C   0  0  0  0  0  0  0  0  0  0  0  0
    4.6102    1.5175   -0.3546 C   0  0  0  0  0  0  0  0  0  0  0  0
    5.2278    2.5330   -0.6734 O   0  0  0  0  0  0  0  0  0  0  0  0
    4.1272   -1.0808   -0.9623 H   0  0  0  0  0  0  0  0  0  0  0  0
    2.6886   -0.7956   -1.9529 H   0  0  0  0  0  0  0  0  0  0  0  0
    2.6552   -1.9939   -0.6431 H   0  0  0  0  0  0  0  0  0  0  0  0
    2.9284   -0.1839    1.0400 H   0  0  0  0  0  0  0  0  0  0  0  0
    0.6334    0.2587   -0.9514 H   0  0  0  0  0  0  0  0  0  0  0  0
    0.6615   -0.9354    0.3453 H   0  0  0  0  0  0  0  0  0  0  0  0
    0.7984    2.0916    0.7231 H   0  0  0  0  0  0  0  0  0  0  0  0
    0.8662    0.8823    2.0286 H   0  0  0  0  0  0  0  0  0  0  0  0
   -1.5619    0.4336    0.4268 H   0  0  0  0  0  0  0  0  0  0  0  0
    0.0855    2.9349    2.6921 H   0  0  0  0  0  0  0  0  0  0  0  0
   -1.2782    2.8112    3.7871 H   0  0  0  0  0  0  0  0  0  0  0  0
   -1.2794    4.0114    2.4640 H   0  0  0  0  0  0  0  0  0  0  0  0
   -3.6140    1.2679    1.1633 H   0  0  0  0  0  0  0  0  0  0  0  0
   -3.5655    2.9947    1.5351 H   0  0  0  0  0  0  0  0  0  0  0  0
   -3.5738    1.7930    2.8505 H   0  0  0  0  0  0  0  0  0  0  0  0
    2.7875    2.2151    0.3534 H   0  0  0  0  0  0  0  0  0  0  0  0
    2.7443    1.7300   -1.3563 H   0  0  0  0  0  0  0  0  0  0  0  0
    5.1494    0.6198   -0.0172 H   0  0  0  0  0  0  0  0  0  0  0  0
  1 12  1  0  0  0  0
  1 13  1  0  0  0  0
  1 14  1  0  0  0  0
  2  9  1  0  0  0  0
  2  3  1  0  0  0  0
  2  1  1  0  0  0  0
  2 15  1  1  0  0  0
  3  4  1  0  0  0  0
  3 16  1  0  0  0  0
  3 17  1  0  0  0  0
  4  5  1  0  0  0  0
  4 18  1  0  0  0  0
  4 19  1  0  0  0  0
  5  6  2  0  0  0  0
  5 20  1  0  0  0  0
  6  7  1  0  0  0  0
  6  8  1  0  0  0  0
  7 21  1  0  0  0  0
  7 22  1  0  0  0  0
  7 23  1  0  0  0  0
  8 24  1  0  0  0  0
  8 25  1  0  0  0  0
  8 26  1  0  0  0  0
  9 10  1  0  0  0  0
  9 27  1  0  0  0  0
  9 28  1  0  0  0  0
 10 11  2  0  0  0  0
 10 29  1  0  0  0  0
M  END
$$$$
