
 OpenBabel07202215583D

 18 19  0  0  0  0  0  0  0  0999 V2000
   -2.9949   -0.1871   -0.0469 C   0  0  0  0  0  0  0  0  0  0  0  0
   -2.7916    1.1903    0.0305 C   0  0  0  0  0  0  0  0  0  0  0  0
   -1.4969    1.6914    0.0582 C   0  0  0  0  0  0  0  0  0  0  0  0
   -0.4229    0.8021    0.0239 C   0  0  0  0  0  0  0  0  0  0  0  0
   -0.5916   -0.5865   -0.0212 C   0  0  0  0  0  0  0  0  0  0  0  0
   -1.9051   -1.0711   -0.0713 C   0  0  0  0  0  0  0  0  0  0  0  0
    0.6221   -1.4117    0.0035 C   0  0  0  0  0  0  0  0  0  0  0  0
    1.8240   -0.8317    0.0234 C   0  0  0  0  0  0  0  0  0  0  0  0
    2.0030    0.6228    0.0000 C   0  0  0  0  0  0  0  0  0  0  0  0
    3.1231    1.1213   -0.0343 O   0  0  0  0  0  0  0  0  0  0  0  0
    0.8558    1.3932    0.0294 O   0  0  0  0  0  0  0  0  0  0  0  0
    0.5440   -2.7896    0.0310 O   0  0  0  0  0  0  0  0  0  0  0  0
   -4.0097   -0.5776   -0.0857 H   0  0  0  0  0  0  0  0  0  0  0  0
   -3.6385    1.8711    0.0641 H   0  0  0  0  0  0  0  0  0  0  0  0
   -1.3177    2.7618    0.1069 H   0  0  0  0  0  0  0  0  0  0  0  0
   -2.1274   -2.1313   -0.1308 H   0  0  0  0  0  0  0  0  0  0  0  0
    2.7327   -1.4187    0.0571 H   0  0  0  0  0  0  0  0  0  0  0  0
   -0.3790   -3.0810    0.0335 H   0  0  0  0  0  0  0  0  0  0  0  0
  1  2  2  0  0  0  0
  1  6  1  0  0  0  0
  1 13  1  0  0  0  0
  2  3  1  0  0  0  0
  2 14  1  0  0  0  0
  3  4  2  0  0  0  0
  3 15  1  0  0  0  0
  4  5  1  0  0  0  0
  4 11  1  0  0  0  0
  5  6  2  0  0  0  0
  5  7  1  0  0  0  0
  6 16  1  0  0  0  0
  7  8  2  0  0  0  0
  7 12  1  0  0  0  0
  8  9  1  0  0  0  0
  8 17  1  0  0  0  0
  9 10  2  0  0  0  0
  9 11  1  0  0  0  0
 12 18  1  0  0  0  0
M  END
$$$$
