
 OpenBabel07222214433D

 17 18  0  0  0  0  0  0  0  0999 V2000
    2.4502   -0.6802    0.0077 C   0  0  0  0  0  0  0  0  0  0  0  0
    2.4110    0.7094   -0.0026 C   0  0  0  0  0  0  0  0  0  0  0  0
    1.1794    1.3717   -0.0086 C   0  0  0  0  0  0  0  0  0  0  0  0
   -0.0233    0.6774   -0.0040 C   0  0  0  0  0  0  0  0  0  0  0  0
   -1.1830    1.3595   -0.0006 N   0  0  0  0  0  0  0  0  0  0  0  0
   -2.3337    0.6511    0.0027 C   0  0  0  0  0  0  0  0  0  0  0  0
   -2.3910   -0.7296   -0.0033 C   0  0  0  0  0  0  0  0  0  0  0  0
   -1.1921   -1.4315   -0.0073 C   0  0  0  0  0  0  0  0  0  0  0  0
    0.0227   -0.7335   -0.0027 C   0  0  0  0  0  0  0  0  0  0  0  0
    1.2590   -1.4030    0.0045 C   0  0  0  0  0  0  0  0  0  0  0  0
    3.4045   -1.2003    0.0177 H   0  0  0  0  0  0  0  0  0  0  0  0
    3.3338    1.2836   -0.0049 H   0  0  0  0  0  0  0  0  0  0  0  0
    1.1559    2.4587   -0.0163 H   0  0  0  0  0  0  0  0  0  0  0  0
   -3.2412    1.2482    0.0101 H   0  0  0  0  0  0  0  0  0  0  0  0
   -3.3438   -1.2461   -0.0037 H   0  0  0  0  0  0  0  0  0  0  0  0
   -1.2085   -2.5180   -0.0137 H   0  0  0  0  0  0  0  0  0  0  0  0
    1.2980   -2.4896    0.0099 H   0  0  0  0  0  0  0  0  0  0  0  0
  1  2  1  0  0  0  0
  1 10  2  0  0  0  0
  1 11  1  0  0  0  0
  2  3  2  0  0  0  0
  2 12  1  0  0  0  0
  3  4  1  0  0  0  0
  3 13  1  0  0  0  0
  4  5  1  0  0  0  0
  4  9  2  0  0  0  0
  5  6  2  0  0  0  0
  6  7  1  0  0  0  0
  6 14  1  0  0  0  0
  7  8  2  0  0  0  0
  7 15  1  0  0  0  0
  8  9  1  0  0  0  0
  8 16  1  0  0  0  0
  9 10  1  0  0  0  0
 10 17  1  0  0  0  0
M  END
$$$$
