
 OpenBabel07122215493D

 25 24  0  0  0  0  0  0  0  0999 V2000
    0.9588    0.0789   -0.0532 C   0  0  0  0  0  0  0  0  0  0  0  0
    2.4752    0.0751   -0.0623 C   0  0  0  0  0  0  0  0  0  0  0  0
    2.9996   -0.5872   -1.3299 C   0  0  0  0  0  0  0  0  0  0  0  0
    4.5212   -0.5936   -1.3382 C   0  0  0  0  0  0  0  0  0  0  0  0
    5.0469   -1.2611   -2.6058 C   0  0  0  0  0  0  0  0  0  0  0  0
    6.5746   -1.2727   -2.6239 C   0  0  0  0  0  0  0  0  0  0  0  0
    7.0640   -1.9780   -1.4881 O   0  0  0  0  0  0  0  0  0  0  0  0
    7.1086   -1.9287   -3.8616 C   0  0  0  0  0  0  0  0  0  0  0  0
    8.4201   -2.0551   -4.1104 C   0  0  0  0  0  0  0  0  0  0  0  0
    0.5860    0.5555    0.8573 H   0  0  0  0  0  0  0  0  0  0  0  0
    0.5691   -0.9433   -0.0925 H   0  0  0  0  0  0  0  0  0  0  0  0
    0.5684    0.6285   -0.9157 H   0  0  0  0  0  0  0  0  0  0  0  0
    2.8462   -0.4598    0.8200 H   0  0  0  0  0  0  0  0  0  0  0  0
    2.8461    1.1048    0.0019 H   0  0  0  0  0  0  0  0  0  0  0  0
    2.6270   -0.0529   -2.2124 H   0  0  0  0  0  0  0  0  0  0  0  0
    2.6264   -1.6169   -1.3930 H   0  0  0  0  0  0  0  0  0  0  0  0
    4.8866   -1.1255   -0.4516 H   0  0  0  0  0  0  0  0  0  0  0  0
    4.8990    0.4343   -1.2786 H   0  0  0  0  0  0  0  0  0  0  0  0
    4.6657   -0.7306   -3.4878 H   0  0  0  0  0  0  0  0  0  0  0  0
    4.6611   -2.2882   -2.6498 H   0  0  0  0  0  0  0  0  0  0  0  0
    6.9442   -0.2422   -2.5663 H   0  0  0  0  0  0  0  0  0  0  0  0
    6.7393   -2.8913   -1.5580 H   0  0  0  0  0  0  0  0  0  0  0  0
    6.3960   -2.2947   -4.5964 H   0  0  0  0  0  0  0  0  0  0  0  0
    9.1541   -1.6876   -3.3989 H   0  0  0  0  0  0  0  0  0  0  0  0
    8.7770   -2.5224   -5.0203 H   0  0  0  0  0  0  0  0  0  0  0  0
  1  2  1  0  0  0  0
  1 10  1  0  0  0  0
  1 11  1  0  0  0  0
  1 12  1  0  0  0  0
  2  3  1  0  0  0  0
  2 13  1  0  0  0  0
  2 14  1  0  0  0  0
  3  4  1  0  0  0  0
  3 15  1  0  0  0  0
  3 16  1  0  0  0  0
  4  5  1  0  0  0  0
  4 17  1  0  0  0  0
  4 18  1  0  0  0  0
  5  6  1  0  0  0  0
  5 19  1  0  0  0  0
  5 20  1  0  0  0  0
  6  7  1  0  0  0  0
  6  8  1  0  0  0  0
  6 21  1  0  0  0  0
  7 22  1  0  0  0  0
  8  9  2  0  0  0  0
  8 23  1  0  0  0  0
  9 24  1  0  0  0  0
  9 25  1  0  0  0  0
M  END
$$$$
