
 OpenBabel07122215493D

 30 30  0  0  0  0  0  0  0  0999 V2000
    0.9557   -0.0732   -0.0775 C   0  0  0  0  0  0  0  0  0  0  0  0
    2.5019   -0.0597   -0.0769 C   0  0  0  0  0  0  0  0  0  0  0  0
    2.9838   -1.2374    0.7917 C   0  0  0  0  0  0  0  0  0  0  0  0
    3.0092   -0.2807   -1.5157 C   0  0  0  0  0  0  0  0  0  0  0  0
    2.9603    1.3019    0.4570 C   0  0  0  0  0  0  0  0  0  0  0  0
    3.6272    1.4614    1.6813 C   0  0  0  0  0  0  0  0  0  0  0  0
    3.8370    2.7337    2.2233 C   0  0  0  0  0  0  0  0  0  0  0  0
    3.4748    3.8746    1.5102 C   0  0  0  0  0  0  0  0  0  0  0  0
    3.7761    5.0726    2.1030 O   0  0  0  0  0  0  0  0  0  0  0  0
    3.5280    6.2188    1.2956 C   0  0  0  0  0  0  0  0  0  0  0  0
    4.0159    7.4504    2.0070 C   0  0  0  0  0  0  0  0  0  0  0  0
    3.8788    8.5851    1.5432 O   0  0  0  0  0  0  0  0  0  0  0  0
    2.8570    3.7301    0.2708 C   0  0  0  0  0  0  0  0  0  0  0  0
    2.6077    2.4629   -0.2474 C   0  0  0  0  0  0  0  0  0  0  0  0
    0.5650   -1.0266   -0.4475 H   0  0  0  0  0  0  0  0  0  0  0  0
    0.5362    0.7146   -0.7147 H   0  0  0  0  0  0  0  0  0  0  0  0
    0.5600    0.0863    0.9331 H   0  0  0  0  0  0  0  0  0  0  0  0
    2.6202   -2.1952    0.4053 H   0  0  0  0  0  0  0  0  0  0  0  0
    2.6196   -1.1478    1.8225 H   0  0  0  0  0  0  0  0  0  0  0  0
    4.0787   -1.2850    0.8227 H   0  0  0  0  0  0  0  0  0  0  0  0
    2.6642   -1.2429   -1.9106 H   0  0  0  0  0  0  0  0  0  0  0  0
    4.1042   -0.2696   -1.5546 H   0  0  0  0  0  0  0  0  0  0  0  0
    2.6503    0.4897   -2.2071 H   0  0  0  0  0  0  0  0  0  0  0  0
    3.9775    0.6074    2.2552 H   0  0  0  0  0  0  0  0  0  0  0  0
    4.2731    2.8213    3.2154 H   0  0  0  0  0  0  0  0  0  0  0  0
    2.4508    6.3365    1.1362 H   0  0  0  0  0  0  0  0  0  0  0  0
    4.0771    6.1534    0.3485 H   0  0  0  0  0  0  0  0  0  0  0  0
    4.5236    7.2933    2.9706 H   0  0  0  0  0  0  0  0  0  0  0  0
    2.5248    4.5766   -0.3192 H   0  0  0  0  0  0  0  0  0  0  0  0
    2.0985    2.3973   -1.2061 H   0  0  0  0  0  0  0  0  0  0  0  0
  1  2  1  0  0  0  0
  1 15  1  0  0  0  0
  1 16  1  0  0  0  0
  1 17  1  0  0  0  0
  2  3  1  0  0  0  0
  2  4  1  0  0  0  0
  2  5  1  0  0  0  0
  3 18  1  0  0  0  0
  3 19  1  0  0  0  0
  3 20  1  0  0  0  0
  4 21  1  0  0  0  0
  4 22  1  0  0  0  0
  4 23  1  0  0  0  0
  5  6  1  0  0  0  0
  5 14  2  0  0  0  0
  6  7  2  0  0  0  0
  6 24  1  0  0  0  0
  7  8  1  0  0  0  0
  7 25  1  0  0  0  0
  8  9  1  0  0  0  0
  8 13  2  0  0  0  0
  9 10  1  0  0  0  0
 10 11  1  0  0  0  0
 10 26  1  0  0  0  0
 10 27  1  0  0  0  0
 11 12  2  0  0  0  0
 11 28  1  0  0  0  0
 13 14  1  0  0  0  0
 13 29  1  0  0  0  0
 14 30  1  0  0  0  0
M  END
$$$$
