
 OpenBabel07202215583D

 29 28  0  0  0  0  0  0  0  0999 V2000
    0.8907    0.0535   -0.0279 C   0  0  0  0  0  0  0  0  0  0  0  0
    2.4067    0.0503   -0.0252 C   0  0  0  0  0  0  0  0  0  0  0  0
    2.9371   -1.0415    0.8921 C   0  0  0  0  0  0  0  0  0  0  0  0
    4.4603   -1.0413    0.8919 C   0  0  0  0  0  0  0  0  0  0  0  0
    4.9752   -2.1351    1.8108 C   0  0  0  0  0  0  0  0  0  0  0  0
    6.4729   -2.1788    1.8475 C   0  0  0  0  0  0  0  0  0  0  0  0
    7.1418   -3.0686    2.5950 C   0  0  0  0  0  0  0  0  0  0  0  0
    6.4410   -4.0859    3.4497 C   0  0  0  0  0  0  0  0  0  0  0  0
    7.4199   -4.9739    4.1958 C   0  0  0  0  0  0  0  0  0  0  0  0
    6.6819   -5.9766    5.0381 C   0  0  0  0  0  0  0  0  0  0  0  0
    7.2600   -6.8073    5.7360 O   0  0  0  0  0  0  0  0  0  0  0  0
    0.5158    0.8397   -0.6883 H   0  0  0  0  0  0  0  0  0  0  0  0
    0.5021    0.2335    0.9795 H   0  0  0  0  0  0  0  0  0  0  0  0
    0.5021   -0.9078   -0.3790 H   0  0  0  0  0  0  0  0  0  0  0  0
    2.7764    1.0271    0.3076 H   0  0  0  0  0  0  0  0  0  0  0  0
    2.7764   -0.1091   -1.0447 H   0  0  0  0  0  0  0  0  0  0  0  0
    2.5657   -2.0201    0.5621 H   0  0  0  0  0  0  0  0  0  0  0  0
    2.5657   -0.8853    1.9129 H   0  0  0  0  0  0  0  0  0  0  0  0
    4.8332   -0.0657    1.2270 H   0  0  0  0  0  0  0  0  0  0  0  0
    4.8332   -1.2032   -0.1269 H   0  0  0  0  0  0  0  0  0  0  0  0
    4.5910   -3.1031    1.4652 H   0  0  0  0  0  0  0  0  0  0  0  0
    4.5910   -1.9616    2.8239 H   0  0  0  0  0  0  0  0  0  0  0  0
    7.0299   -1.4629    1.2461 H   0  0  0  0  0  0  0  0  0  0  0  0
    8.2297   -3.0518    2.5810 H   0  0  0  0  0  0  0  0  0  0  0  0
    5.7936   -4.7093    2.8189 H   0  0  0  0  0  0  0  0  0  0  0  0
    5.7936   -3.5720    4.1725 H   0  0  0  0  0  0  0  0  0  0  0  0
    8.0512   -4.3690    4.8546 H   0  0  0  0  0  0  0  0  0  0  0  0
    8.0512   -5.5186    3.4863 H   0  0  0  0  0  0  0  0  0  0  0  0
    5.5795   -5.9414    5.0086 H   0  0  0  0  0  0  0  0  0  0  0  0
  1  2  1  0  0  0  0
  1 12  1  0  0  0  0
  1 13  1  0  0  0  0
  1 14  1  0  0  0  0
  2  3  1  0  0  0  0
  2 15  1  0  0  0  0
  2 16  1  0  0  0  0
  3  4  1  0  0  0  0
  3 17  1  0  0  0  0
  3 18  1  0  0  0  0
  4  5  1  0  0  0  0
  4 19  1  0  0  0  0
  4 20  1  0  0  0  0
  5  6  1  0  0  0  0
  5 21  1  0  0  0  0
  5 22  1  0  0  0  0
  6  7  2  0  0  0  0
  6 23  1  0  0  0  0
  7  8  1  0  0  0  0
  7 24  1  0  0  0  0
  8  9  1  0  0  0  0
  8 25  1  0  0  0  0
  8 26  1  0  0  0  0
  9 10  1  0  0  0  0
  9 27  1  0  0  0  0
  9 28  1  0  0  0  0
 10 11  2  0  0  0  0
 10 29  1  0  0  0  0
M  END
$$$$
