
 OpenBabel07202215583D

 25 25  0  0  0  0  0  0  0  0999 V2000
    1.0565    0.0285    0.0585 C   0  0  0  0  0  0  0  0  0  0  0  0
    2.5846    0.0452    0.0371 C   0  0  0  0  0  0  0  0  0  0  0  0
    3.0765    0.5407   -1.3265 C   0  0  0  0  0  0  0  0  0  0  0  0
    3.1193    0.9206    1.1871 C   0  0  0  0  0  0  0  0  0  0  0  0
    4.6283    0.9436    1.2368 C   0  0  0  0  0  0  0  0  0  0  0  0
    5.3516   -0.2091    1.5733 C   0  0  0  0  0  0  0  0  0  0  0  0
    6.7477   -0.2077    1.5308 C   0  0  0  0  0  0  0  0  0  0  0  0
    7.4169    0.9537    1.1545 C   0  0  0  0  0  0  0  0  0  0  0  0
    6.7163    2.1062    0.8280 C   0  0  0  0  0  0  0  0  0  0  0  0
    5.3231    2.1046    0.8688 C   0  0  0  0  0  0  0  0  0  0  0  0
    8.7781    1.0023    1.0843 O   0  0  0  0  0  0  0  0  0  0  0  0
    0.6660   -0.6175   -0.7349 H   0  0  0  0  0  0  0  0  0  0  0  0
    0.6487    1.0339   -0.0919 H   0  0  0  0  0  0  0  0  0  0  0  0
    0.6828   -0.3509    1.0151 H   0  0  0  0  0  0  0  0  0  0  0  0
    2.9346   -0.9863    0.1730 H   0  0  0  0  0  0  0  0  0  0  0  0
    2.7478    1.5687   -1.5121 H   0  0  0  0  0  0  0  0  0  0  0  0
    2.6939   -0.0935   -2.1320 H   0  0  0  0  0  0  0  0  0  0  0  0
    4.1690    0.5183   -1.3931 H   0  0  0  0  0  0  0  0  0  0  0  0
    2.7439    0.5544    2.1516 H   0  0  0  0  0  0  0  0  0  0  0  0
    2.7333    1.9434    1.0838 H   0  0  0  0  0  0  0  0  0  0  0  0
    4.8273   -1.1229    1.8462 H   0  0  0  0  0  0  0  0  0  0  0  0
    7.2860   -1.1151    1.7807 H   0  0  0  0  0  0  0  0  0  0  0  0
    7.2518    3.0025    0.5280 H   0  0  0  0  0  0  0  0  0  0  0  0
    4.7832    3.0037    0.5836 H   0  0  0  0  0  0  0  0  0  0  0  0
    9.1320    0.1311    1.3220 H   0  0  0  0  0  0  0  0  0  0  0  0
  1  2  1  0  0  0  0
  1 12  1  0  0  0  0
  1 13  1  0  0  0  0
  1 14  1  0  0  0  0
  2  3  1  0  0  0  0
  2  4  1  0  0  0  0
  2 15  1  0  0  0  0
  3 16  1  0  0  0  0
  3 17  1  0  0  0  0
  3 18  1  0  0  0  0
  4  5  1  0  0  0  0
  4 19  1  0  0  0  0
  4 20  1  0  0  0  0
  5  6  2  0  0  0  0
  5 10  1  0  0  0  0
  6  7  1  0  0  0  0
  6 21  1  0  0  0  0
  7  8  2  0  0  0  0
  7 22  1  0  0  0  0
  8  9  1  0  0  0  0
  8 11  1  0  0  0  0
  9 10  2  0  0  0  0
  9 23  1  0  0  0  0
 10 24  1  0  0  0  0
 11 25  1  0  0  0  0
M  END
$$$$
