
 OpenBabel07202215583D

 20 19  0  0  0  0  0  0  0  0999 V2000
    0.9572    0.0697   -0.0375 C   0  0  0  0  0  0  0  0  0  0  0  0
    2.4764    0.0627   -0.0434 C   0  0  0  0  0  0  0  0  0  0  0  0
    3.0617   -1.0180   -0.9603 C   0  0  0  0  0  0  0  0  0  0  0  0
    4.5782   -0.9785   -0.9268 C   0  0  0  0  0  0  0  0  0  0  0  0
    5.2340   -0.1887   -0.2567 O   0  0  0  0  0  0  0  0  0  0  0  0
    5.1234   -1.9340   -1.7375 O   0  0  0  0  0  0  0  0  0  0  0  0
    6.5633   -1.9309   -1.7348 C   0  0  0  0  0  0  0  0  0  0  0  0
    7.0892   -3.0175   -2.6568 C   0  0  0  0  0  0  0  0  0  0  0  0
    0.5870    0.8560    0.6297 H   0  0  0  0  0  0  0  0  0  0  0  0
    0.5607   -0.8868    0.3162 H   0  0  0  0  0  0  0  0  0  0  0  0
    0.5607    0.2629   -1.0388 H   0  0  0  0  0  0  0  0  0  0  0  0
    2.8353   -0.0882    0.9822 H   0  0  0  0  0  0  0  0  0  0  0  0
    2.8353    1.0501   -0.3593 H   0  0  0  0  0  0  0  0  0  0  0  0
    2.7218   -0.8509   -1.9885 H   0  0  0  0  0  0  0  0  0  0  0  0
    2.7218   -2.0052   -0.6280 H   0  0  0  0  0  0  0  0  0  0  0  0
    6.9297   -2.1152   -0.7180 H   0  0  0  0  0  0  0  0  0  0  0  0
    6.9297   -0.9577   -2.0823 H   0  0  0  0  0  0  0  0  0  0  0  0
    6.7381   -4.0038   -2.3379 H   0  0  0  0  0  0  0  0  0  0  0  0
    8.1847   -3.0243   -2.6625 H   0  0  0  0  0  0  0  0  0  0  0  0
    6.7381   -2.8635   -3.6819 H   0  0  0  0  0  0  0  0  0  0  0  0
  1  2  1  0  0  0  0
  1  9  1  0  0  0  0
  1 10  1  0  0  0  0
  1 11  1  0  0  0  0
  2  3  1  0  0  0  0
  2 12  1  0  0  0  0
  2 13  1  0  0  0  0
  3  4  1  0  0  0  0
  3 14  1  0  0  0  0
  3 15  1  0  0  0  0
  4  5  2  0  0  0  0
  4  6  1  0  0  0  0
  6  7  1  0  0  0  0
  7  8  1  0  0  0  0
  7 16  1  0  0  0  0
  7 17  1  0  0  0  0
  8 18  1  0  0  0  0
  8 19  1  0  0  0  0
  8 20  1  0  0  0  0
M  END
$$$$
