
 OpenBabel07222214433D

 26 25  0  0  0  0  0  0  0  0999 V2000
    1.0307    0.0454   -0.0603 C   0  0  0  0  0  0  0  0  0  0  0  0
    2.5449    0.0525   -0.0544 C   0  0  0  0  0  0  0  0  0  0  0  0
    3.1007    1.1272    0.8357 C   0  0  0  0  0  0  0  0  0  0  0  0
    4.4190    1.3171    0.9930 C   0  0  0  0  0  0  0  0  0  0  0  0
    5.4331    0.4666    0.2886 C   0  0  0  0  0  0  0  0  0  0  0  0
    6.8559    0.8767    0.6282 C   0  0  0  0  0  0  0  0  0  0  0  0
    7.8510   -0.0134   -0.1089 C   0  0  0  0  0  0  0  0  0  0  0  0
    9.2748    0.3973    0.2312 C   0  0  0  0  0  0  0  0  0  0  0  0
   10.2739   -0.4673   -0.4849 C   0  0  0  0  0  0  0  0  0  0  0  0
   11.4875   -0.3171   -0.3605 O   0  0  0  0  0  0  0  0  0  0  0  0
    0.6652   -0.7488   -0.7180 H   0  0  0  0  0  0  0  0  0  0  0  0
    0.6388    1.0008   -0.4228 H   0  0  0  0  0  0  0  0  0  0  0  0
    0.6388   -0.1328    0.9459 H   0  0  0  0  0  0  0  0  0  0  0  0
    2.9014    0.2043   -1.0804 H   0  0  0  0  0  0  0  0  0  0  0  0
    2.9014   -0.9273    0.2859 H   0  0  0  0  0  0  0  0  0  0  0  0
    2.4078    1.7731    1.3707 H   0  0  0  0  0  0  0  0  0  0  0  0
    4.7663    2.1113    1.6508 H   0  0  0  0  0  0  0  0  0  0  0  0
    5.2864    0.5488   -0.7957 H   0  0  0  0  0  0  0  0  0  0  0  0
    5.2864   -0.5834    0.5712 H   0  0  0  0  0  0  0  0  0  0  0  0
    7.0167    0.7979    1.7105 H   0  0  0  0  0  0  0  0  0  0  0  0
    7.0167    1.9254    0.3492 H   0  0  0  0  0  0  0  0  0  0  0  0
    7.6868    0.0579   -1.1920 H   0  0  0  0  0  0  0  0  0  0  0  0
    7.6868   -1.0642    0.1628 H   0  0  0  0  0  0  0  0  0  0  0  0
    9.4451    0.2989    1.3082 H   0  0  0  0  0  0  0  0  0  0  0  0
    9.4451    1.4372   -0.0661 H   0  0  0  0  0  0  0  0  0  0  0  0
    9.8702   -1.2575   -1.1394 H   0  0  0  0  0  0  0  0  0  0  0  0
  1  2  1  0  0  0  0
  1 11  1  0  0  0  0
  1 12  1  0  0  0  0
  1 13  1  0  0  0  0
  2  3  1  0  0  0  0
  2 14  1  0  0  0  0
  2 15  1  0  0  0  0
  3  4  2  0  0  0  0
  3 16  1  0  0  0  0
  4  5  1  0  0  0  0
  4 17  1  0  0  0  0
  5  6  1  0  0  0  0
  5 18  1  0  0  0  0
  5 19  1  0  0  0  0
  6  7  1  0  0  0  0
  6 20  1  0  0  0  0
  6 21  1  0  0  0  0
  7  8  1  0  0  0  0
  7 22  1  0  0  0  0
  7 23  1  0  0  0  0
  8  9  1  0  0  0  0
  8 24  1  0  0  0  0
  8 25  1  0  0  0  0
  9 10  2  0  0  0  0
  9 26  1  0  0  0  0
M  END
$$$$
