
 OpenBabel07222214433D

 34 34  0  0  0  0  0  0  0  0999 V2000
    0.9879    0.0355    0.0731 C   0  0  0  0  0  0  0  0  0  0  0  0
    2.4943    0.0916    0.0991 C   0  0  0  0  0  0  0  0  0  0  0  0
    3.1053    1.1504   -0.0393 O   0  0  0  0  0  0  0  0  0  0  0  0
    3.2066   -1.2033    0.2783 C   0  0  0  0  0  0  0  0  0  0  0  0
    4.5460   -1.2912    0.2058 C   0  0  0  0  0  0  0  0  0  0  0  0
    5.2886   -2.5560    0.2889 C   0  0  0  0  0  0  0  0  0  0  0  0
    4.9531   -3.6303   -0.4702 C   0  0  0  0  0  0  0  0  0  0  0  0
    3.9048   -3.6394   -1.5575 C   0  0  0  0  0  0  0  0  0  0  0  0
    5.6236   -4.9810   -0.3277 C   0  0  0  0  0  0  0  0  0  0  0  0
    6.5079   -5.1212    0.9014 C   0  0  0  0  0  0  0  0  0  0  0  0
    7.3628   -3.8767    1.0592 C   0  0  0  0  0  0  0  0  0  0  0  0
    6.5006   -2.5951    1.2576 C   0  0  0  0  0  0  0  0  0  0  0  0
    7.4607   -1.4017    1.0480 C   0  0  0  0  0  0  0  0  0  0  0  0
    5.9936   -2.5634    2.7141 C   0  0  0  0  0  0  0  0  0  0  0  0
    0.5887    1.0495   -0.0270 H   0  0  0  0  0  0  0  0  0  0  0  0
    0.6121   -0.3912    1.0068 H   0  0  0  0  0  0  0  0  0  0  0  0
    0.6419   -0.5566   -0.7792 H   0  0  0  0  0  0  0  0  0  0  0  0
    2.5852   -2.0831    0.3976 H   0  0  0  0  0  0  0  0  0  0  0  0
    5.1276   -0.3801    0.0777 H   0  0  0  0  0  0  0  0  0  0  0  0
    3.4236   -2.6766   -1.7321 H   0  0  0  0  0  0  0  0  0  0  0  0
    3.1203   -4.3627   -1.3136 H   0  0  0  0  0  0  0  0  0  0  0  0
    4.3646   -3.9186   -2.5101 H   0  0  0  0  0  0  0  0  0  0  0  0
    6.2232   -5.1647   -1.2278 H   0  0  0  0  0  0  0  0  0  0  0  0
    4.8587   -5.7662   -0.2846 H   0  0  0  0  0  0  0  0  0  0  0  0
    7.1439   -6.0079    0.7970 H   0  0  0  0  0  0  0  0  0  0  0  0
    5.8932   -5.2838    1.7942 H   0  0  0  0  0  0  0  0  0  0  0  0
    7.9926   -3.7751    0.1638 H   0  0  0  0  0  0  0  0  0  0  0  0
    8.0523   -4.0134    1.9022 H   0  0  0  0  0  0  0  0  0  0  0  0
    7.8494   -1.3821    0.0230 H   0  0  0  0  0  0  0  0  0  0  0  0
    8.3194   -1.4652    1.7274 H   0  0  0  0  0  0  0  0  0  0  0  0
    6.9775   -0.4399    1.2448 H   0  0  0  0  0  0  0  0  0  0  0  0
    5.3231   -3.4022    2.9290 H   0  0  0  0  0  0  0  0  0  0  0  0
    5.4463   -1.6398    2.9296 H   0  0  0  0  0  0  0  0  0  0  0  0
    6.8296   -2.6197    3.4217 H   0  0  0  0  0  0  0  0  0  0  0  0
  1  2  1  0  0  0  0
  1 15  1  0  0  0  0
  1 16  1  0  0  0  0
  1 17  1  0  0  0  0
  2  3  2  0  0  0  0
  2  4  1  0  0  0  0
  4  5  2  0  0  0  0
  4 18  1  0  0  0  0
  5  6  1  0  0  0  0
  5 19  1  0  0  0  0
  6  7  2  0  0  0  0
  6 12  1  0  0  0  0
  7  8  1  0  0  0  0
  7  9  1  0  0  0  0
  8 20  1  0  0  0  0
  8 21  1  0  0  0  0
  8 22  1  0  0  0  0
  9 10  1  0  0  0  0
  9 23  1  0  0  0  0
  9 24  1  0  0  0  0
 10 11  1  0  0  0  0
 10 25  1  0  0  0  0
 10 26  1  0  0  0  0
 11 12  1  0  0  0  0
 11 27  1  0  0  0  0
 11 28  1  0  0  0  0
 12 13  1  0  0  0  0
 12 14  1  0  0  0  0
 13 29  1  0  0  0  0
 13 30  1  0  0  0  0
 13 31  1  0  0  0  0
 14 32  1  0  0  0  0
 14 33  1  0  0  0  0
 14 34  1  0  0  0  0
M  END
$$$$
