
 OpenBabel07122215493D

 19 18  0  0  0  0  0  0  0  0999 V2000
    0.8963   -0.0297    0.0130 C   0  0  0  0  0  0  0  0  0  0  0  0
    2.4160   -0.0244    0.0186 C   0  0  0  0  0  0  0  0  0  0  0  0
    2.9398    0.9633    1.0539 C   0  0  0  0  0  0  0  0  0  0  0  0
    4.4640    0.9989    1.0912 C   0  0  0  0  0  0  0  0  0  0  0  0
    4.9557    1.9901    2.1302 C   0  0  0  0  0  0  0  0  0  0  0  0
    4.1879    2.6556    2.8277 O   0  0  0  0  0  0  0  0  0  0  0  0
    6.4426    2.1425    2.2899 C   0  0  0  0  0  0  0  0  0  0  0  0
    0.5194   -0.7383   -0.7297 H   0  0  0  0  0  0  0  0  0  0  0  0
    0.5049    0.9636   -0.2303 H   0  0  0  0  0  0  0  0  0  0  0  0
    0.5049   -0.3195    0.9938 H   0  0  0  0  0  0  0  0  0  0  0  0
    2.7838    0.2462   -0.9777 H   0  0  0  0  0  0  0  0  0  0  0  0
    2.7838   -1.0323    0.2420 H   0  0  0  0  0  0  0  0  0  0  0  0
    2.5554    0.6932    2.0458 H   0  0  0  0  0  0  0  0  0  0  0  0
    2.5554    1.9668    0.8307 H   0  0  0  0  0  0  0  0  0  0  0  0
    4.8578    1.2962    0.1128 H   0  0  0  0  0  0  0  0  0  0  0  0
    4.8578    0.0076    1.3421 H   0  0  0  0  0  0  0  0  0  0  0  0
    6.9784    1.4852    1.6009 H   0  0  0  0  0  0  0  0  0  0  0  0
    6.7179    1.8813    3.3148 H   0  0  0  0  0  0  0  0  0  0  0  0
    6.7179    3.1785    2.0772 H   0  0  0  0  0  0  0  0  0  0  0  0
  1  2  1  0  0  0  0
  1  8  1  0  0  0  0
  1  9  1  0  0  0  0
  1 10  1  0  0  0  0
  2  3  1  0  0  0  0
  2 11  1  0  0  0  0
  2 12  1  0  0  0  0
  3  4  1  0  0  0  0
  3 13  1  0  0  0  0
  3 14  1  0  0  0  0
  4  5  1  0  0  0  0
  4 15  1  0  0  0  0
  4 16  1  0  0  0  0
  5  6  2  0  0  0  0
  5  7  1  0  0  0  0
  7 17  1  0  0  0  0
  7 18  1  0  0  0  0
  7 19  1  0  0  0  0
M  END
$$$$
