
 OpenBabel07202215583D

 27 26  0  0  0  0  0  0  0  0999 V2000
    1.0503   -0.0365    0.0098 C   0  0  0  0  0  0  0  0  0  0  0  0
    2.5682   -0.0417    0.0200 C   0  0  0  0  0  0  0  0  0  0  0  0
    3.0979   -0.6979    1.2902 C   0  0  0  0  0  0  0  0  0  0  0  0
    4.6218   -0.7054    1.3046 C   0  0  0  0  0  0  0  0  0  0  0  0
    5.1432   -1.3631    2.5776 C   0  0  0  0  0  0  0  0  0  0  0  0
    6.6670   -1.3703    2.5914 C   0  0  0  0  0  0  0  0  0  0  0  0
    7.1968   -2.0248    3.8604 C   0  0  0  0  0  0  0  0  0  0  0  0
    8.7172   -2.0295    3.8738 C   0  0  0  0  0  0  0  0  0  0  0  0
    9.1849   -2.6502    5.0628 O   0  0  0  0  0  0  0  0  0  0  0  0
    0.6783    0.4355   -0.9039 H   0  0  0  0  0  0  0  0  0  0  0  0
    0.6578    0.5189    0.8677 H   0  0  0  0  0  0  0  0  0  0  0  0
    0.6578   -1.0575    0.0534 H   0  0  0  0  0  0  0  0  0  0  0  0
    2.9374    0.9881   -0.0502 H   0  0  0  0  0  0  0  0  0  0  0  0
    2.9374   -0.5805   -0.8605 H   0  0  0  0  0  0  0  0  0  0  0  0
    2.7242   -1.7269    1.3594 H   0  0  0  0  0  0  0  0  0  0  0  0
    2.7243   -0.1588    2.1694 H   0  0  0  0  0  0  0  0  0  0  0  0
    4.9986    0.3226    1.2380 H   0  0  0  0  0  0  0  0  0  0  0  0
    4.9986   -1.2460    0.4276 H   0  0  0  0  0  0  0  0  0  0  0  0
    4.7665   -2.3912    2.6444 H   0  0  0  0  0  0  0  0  0  0  0  0
    4.7665   -0.8225    3.4546 H   0  0  0  0  0  0  0  0  0  0  0  0
    7.0404   -0.3412    2.5222 H   0  0  0  0  0  0  0  0  0  0  0  0
    7.0406   -1.9098    1.7125 H   0  0  0  0  0  0  0  0  0  0  0  0
    6.8251   -3.0538    3.9435 H   0  0  0  0  0  0  0  0  0  0  0  0
    6.8205   -1.4969    4.7456 H   0  0  0  0  0  0  0  0  0  0  0  0
    9.1163   -1.0109    3.8315 H   0  0  0  0  0  0  0  0  0  0  0  0
    9.1104   -2.5881    3.0191 H   0  0  0  0  0  0  0  0  0  0  0  0
    8.8353   -2.1427    5.8125 H   0  0  0  0  0  0  0  0  0  0  0  0
  1  2  1  0  0  0  0
  1 10  1  0  0  0  0
  1 11  1  0  0  0  0
  1 12  1  0  0  0  0
  2  3  1  0  0  0  0
  2 13  1  0  0  0  0
  2 14  1  0  0  0  0
  3  4  1  0  0  0  0
  3 15  1  0  0  0  0
  3 16  1  0  0  0  0
  4  5  1  0  0  0  0
  4 17  1  0  0  0  0
  4 18  1  0  0  0  0
  5  6  1  0  0  0  0
  5 19  1  0  0  0  0
  5 20  1  0  0  0  0
  6  7  1  0  0  0  0
  6 21  1  0  0  0  0
  6 22  1  0  0  0  0
  7  8  1  0  0  0  0
  7 23  1  0  0  0  0
  7 24  1  0  0  0  0
  8  9  1  0  0  0  0
  8 25  1  0  0  0  0
  8 26  1  0  0  0  0
  9 27  1  0  0  0  0
M  END
$$$$
