
 OpenBabel07202215583D

 23 22  0  0  0  0  0  0  0  0999 V2000
    1.0430   -0.0500   -0.0657 C   0  0  0  0  0  0  0  0  0  0  0  0
    2.5601   -0.0362   -0.0721 C   0  0  0  0  0  0  0  0  0  0  0  0
    3.0840    1.2649   -0.6751 C   0  0  0  0  0  0  0  0  0  0  0  0
    4.6059    1.2772   -0.6808 C   0  0  0  0  0  0  0  0  0  0  0  0
    5.1636    2.5673   -1.2788 C   0  0  0  0  0  0  0  0  0  0  0  0
    6.6802    2.5380   -1.2652 C   0  0  0  0  0  0  0  0  0  0  0  0
    7.3197    1.5836   -0.8229 O   0  0  0  0  0  0  0  0  0  0  0  0
    7.3835    3.7300   -1.8177 C   0  0  0  0  0  0  0  0  0  0  0  0
    8.7223    3.7592   -1.8312 C   0  0  0  0  0  0  0  0  0  0  0  0
    0.6721   -0.9834    0.3670 H   0  0  0  0  0  0  0  0  0  0  0  0
    0.6511    0.0372   -1.0840 H   0  0  0  0  0  0  0  0  0  0  0  0
    0.6511    0.7834    0.5260 H   0  0  0  0  0  0  0  0  0  0  0  0
    2.9309   -0.8927   -0.6477 H   0  0  0  0  0  0  0  0  0  0  0  0
    2.9309   -0.1506    0.9536 H   0  0  0  0  0  0  0  0  0  0  0  0
    2.7093    2.1179   -0.0969 H   0  0  0  0  0  0  0  0  0  0  0  0
    2.7093    1.3750   -1.6998 H   0  0  0  0  0  0  0  0  0  0  0  0
    4.9769    0.4167   -1.2524 H   0  0  0  0  0  0  0  0  0  0  0  0
    4.9769    1.1572    0.3452 H   0  0  0  0  0  0  0  0  0  0  0  0
    4.8182    3.4287   -0.6957 H   0  0  0  0  0  0  0  0  0  0  0  0
    4.8182    2.6791   -2.3129 H   0  0  0  0  0  0  0  0  0  0  0  0
    6.7889    4.5508   -2.1981 H   0  0  0  0  0  0  0  0  0  0  0  0
    9.3086    2.9274   -1.4457 H   0  0  0  0  0  0  0  0  0  0  0  0
    9.2661    4.6095   -2.2253 H   0  0  0  0  0  0  0  0  0  0  0  0
  1  2  1  0  0  0  0
  1 10  1  0  0  0  0
  1 11  1  0  0  0  0
  1 12  1  0  0  0  0
  2  3  1  0  0  0  0
  2 13  1  0  0  0  0
  2 14  1  0  0  0  0
  3  4  1  0  0  0  0
  3 15  1  0  0  0  0
  3 16  1  0  0  0  0
  4  5  1  0  0  0  0
  4 17  1  0  0  0  0
  4 18  1  0  0  0  0
  5  6  1  0  0  0  0
  5 19  1  0  0  0  0
  5 20  1  0  0  0  0
  6  7  2  0  0  0  0
  6  8  1  0  0  0  0
  8  9  2  0  0  0  0
  8 21  1  0  0  0  0
  9 22  1  0  0  0  0
  9 23  1  0  0  0  0
M  END
$$$$
