
 OpenBabel07222214433D

 42 41  0  0  0  0  0  0  0  0999 V2000
    0.9443   -0.1326   -0.0213 C   0  0  0  0  0  0  0  0  0  0  0  0
    2.4519   -0.0782   -0.0390 C   0  0  0  0  0  0  0  0  0  0  0  0
    3.1539    1.0178   -0.3846 C   0  0  0  0  0  0  0  0  0  0  0  0
    2.4745    2.2759   -0.7766 C   0  0  0  0  0  0  0  0  0  0  0  0
    3.3932    3.4395   -1.1335 C   0  0  0  0  0  0  0  0  0  0  0  0
    2.6024    4.6718   -1.4913 C   0  0  0  0  0  0  0  0  0  0  0  0
    1.2526    4.6848   -1.4645 C   0  0  0  0  0  0  0  0  0  0  0  0
    0.4799    5.8622   -1.8862 C   0  0  0  0  0  0  0  0  0  0  0  0
   -1.0317    5.6899   -1.8439 C   0  0  0  0  0  0  0  0  0  0  0  0
   -1.7532    6.9887   -2.2613 C   0  0  0  0  0  0  0  0  0  0  0  0
   -1.4669    8.1293   -1.2768 C   0  0  0  0  0  0  0  0  0  0  0  0
   -1.4264    7.3881   -3.6860 C   0  0  0  0  0  0  0  0  0  0  0  0
   -0.2336    7.8468   -4.1199 C   0  0  0  0  0  0  0  0  0  0  0  0
   -3.1593    6.7266   -2.2213 O   0  0  0  0  0  0  0  0  0  0  0  0
    3.3967    5.8877   -1.9014 C   0  0  0  0  0  0  0  0  0  0  0  0
    3.1844   -1.3215    0.3521 C   0  0  0  0  0  0  0  0  0  0  0  0
    0.4669    0.8079   -0.3168 H   0  0  0  0  0  0  0  0  0  0  0  0
    0.5836   -0.3612    0.9858 H   0  0  0  0  0  0  0  0  0  0  0  0
    0.5834   -0.8960   -0.7166 H   0  0  0  0  0  0  0  0  0  0  0  0
    4.2395    1.0083   -0.3813 H   0  0  0  0  0  0  0  0  0  0  0  0
    1.8387    2.5812    0.0671 H   0  0  0  0  0  0  0  0  0  0  0  0
    1.8373    2.0548   -1.6457 H   0  0  0  0  0  0  0  0  0  0  0  0
    4.0278    3.1594   -1.9831 H   0  0  0  0  0  0  0  0  0  0  0  0
    4.0465    3.6712   -0.2848 H   0  0  0  0  0  0  0  0  0  0  0  0
    0.6532    3.8208   -1.2021 H   0  0  0  0  0  0  0  0  0  0  0  0
    0.7888    6.0133   -2.9193 H   0  0  0  0  0  0  0  0  0  0  0  0
    0.7853    6.7077   -1.2651 H   0  0  0  0  0  0  0  0  0  0  0  0
   -1.3520    5.3869   -0.8367 H   0  0  0  0  0  0  0  0  0  0  0  0
   -1.3355    4.8601   -2.4990 H   0  0  0  0  0  0  0  0  0  0  0  0
   -0.4144    8.4285   -1.2722 H   0  0  0  0  0  0  0  0  0  0  0  0
   -1.7371    7.8381   -0.2554 H   0  0  0  0  0  0  0  0  0  0  0  0
   -2.0587    9.0157   -1.5247 H   0  0  0  0  0  0  0  0  0  0  0  0
   -2.2191    7.2613   -4.4175 H   0  0  0  0  0  0  0  0  0  0  0  0
    0.6046    7.9915   -3.4456 H   0  0  0  0  0  0  0  0  0  0  0  0
   -0.0374    8.0288   -5.1675 H   0  0  0  0  0  0  0  0  0  0  0  0
   -3.3823    6.4619   -1.3120 H   0  0  0  0  0  0  0  0  0  0  0  0
    4.4739    5.7076   -1.8490 H   0  0  0  0  0  0  0  0  0  0  0  0
    3.1733    6.7340   -1.2419 H   0  0  0  0  0  0  0  0  0  0  0  0
    3.1628    6.1781   -2.9323 H   0  0  0  0  0  0  0  0  0  0  0  0
    2.4909   -2.1277    0.6055 H   0  0  0  0  0  0  0  0  0  0  0  0
    3.8154   -1.1295    1.2261 H   0  0  0  0  0  0  0  0  0  0  0  0
    3.8157   -1.6639   -0.4743 H   0  0  0  0  0  0  0  0  0  0  0  0
  1  2  1  0  0  0  0
  1 17  1  0  0  0  0
  1 18  1  0  0  0  0
  1 19  1  0  0  0  0
  2  3  2  0  0  0  0
  2 16  1  0  0  0  0
  3  4  1  0  0  0  0
  3 20  1  0  0  0  0
  4  5  1  0  0  0  0
  4 21  1  0  0  0  0
  4 22  1  0  0  0  0
  5  6  1  0  0  0  0
  5 23  1  0  0  0  0
  5 24  1  0  0  0  0
  6  7  2  0  0  0  0
  6 15  1  0  0  0  0
  7  8  1  0  0  0  0
  7 25  1  0  0  0  0
  8  9  1  0  0  0  0
  8 26  1  0  0  0  0
  8 27  1  0  0  0  0
  9 10  1  0  0  0  0
  9 28  1  0  0  0  0
  9 29  1  0  0  0  0
 10 11  1  0  0  0  0
 10 12  1  0  0  0  0
 10 14  1  0  0  0  0
 11 30  1  0  0  0  0
 11 31  1  0  0  0  0
 11 32  1  0  0  0  0
 12 13  2  0  0  0  0
 12 33  1  0  0  0  0
 13 34  1  0  0  0  0
 13 35  1  0  0  0  0
 14 36  1  0  0  0  0
 15 37  1  0  0  0  0
 15 38  1  0  0  0  0
 15 39  1  0  0  0  0
 16 40  1  0  0  0  0
 16 41  1  0  0  0  0
 16 42  1  0  0  0  0
M  END
$$$$
