
 OpenBabel07222214433D

 13 12  0  0  0  0  0  0  0  0999 V2000
    0.9752   -0.0201   -0.0398 C   0  0  0  0  0  0  0  0  0  0  0  0
    2.4863    0.0574   -0.1177 C   0  0  0  0  0  0  0  0  0  0  0  0
    3.0213    1.0596   -1.1251 C   0  0  0  0  0  0  0  0  0  0  0  0
    2.0807    1.8918   -1.9617 C   0  0  0  0  0  0  0  0  0  0  0  0
    4.2434    1.1963   -1.2625 O   0  0  0  0  0  0  0  0  0  0  0  0
    0.6532   -0.7563    0.7003 H   0  0  0  0  0  0  0  0  0  0  0  0
    0.5542   -0.3106   -1.0085 H   0  0  0  0  0  0  0  0  0  0  0  0
    0.5542    0.9501    0.2456 H   0  0  0  0  0  0  0  0  0  0  0  0
    2.8844   -0.9285   -0.3847 H   0  0  0  0  0  0  0  0  0  0  0  0
    2.8844    0.3296    0.8668 H   0  0  0  0  0  0  0  0  0  0  0  0
    1.0286    1.6942   -1.7630 H   0  0  0  0  0  0  0  0  0  0  0  0
    2.2583    1.6756   -3.0177 H   0  0  0  0  0  0  0  0  0  0  0  0
    2.2583    2.9490   -1.7509 H   0  0  0  0  0  0  0  0  0  0  0  0
  1  2  1  0  0  0  0
  1  6  1  0  0  0  0
  1  7  1  0  0  0  0
  1  8  1  0  0  0  0
  2  3  1  0  0  0  0
  2  9  1  0  0  0  0
  2 10  1  0  0  0  0
  3  4  1  0  0  0  0
  3  5  2  0  0  0  0
  4 11  1  0  0  0  0
  4 12  1  0  0  0  0
  4 13  1  0  0  0  0
M  END
$$$$
