
 OpenBabel07222214443D

 25 25  0  0  0  0  0  0  0  0999 V2000
    1.1019   -0.0544   -0.0368 C   0  0  0  0  0  0  0  0  0  0  0  0
    2.6087   -0.0507   -0.0573 C   0  0  0  0  0  0  0  0  0  0  0  0
    3.2477    0.3911   -0.9987 O   0  0  0  0  0  0  0  0  0  0  0  0
    3.3200   -0.5230    1.1596 C   0  0  0  0  0  0  0  0  0  0  0  0
    2.9708   -1.7055    1.8368 C   0  0  0  0  0  0  0  0  0  0  0  0
    3.6510   -2.1175    3.0195 C   0  0  0  0  0  0  0  0  0  0  0  0
    4.6813   -1.2709    3.4728 C   0  0  0  0  0  0  0  0  0  0  0  0
    5.0309   -0.1081    2.7836 C   0  0  0  0  0  0  0  0  0  0  0  0
    4.3656    0.2660    1.6272 C   0  0  0  0  0  0  0  0  0  0  0  0
    5.4150   -1.4012    4.6172 O   0  0  0  0  0  0  0  0  0  0  0  0
    3.1360   -3.4065    3.6709 C   0  0  0  0  0  0  0  0  0  0  0  0
    3.7695   -3.8563    4.9564 C   0  0  0  0  0  0  0  0  0  0  0  0
    3.5691   -4.9893    5.6369 C   0  0  0  0  0  0  0  0  0  0  0  0
    0.7330    0.3470   -0.9866 H   0  0  0  0  0  0  0  0  0  0  0  0
    0.7416    0.5927    0.7678 H   0  0  0  0  0  0  0  0  0  0  0  0
    0.7135   -1.0670    0.0784 H   0  0  0  0  0  0  0  0  0  0  0  0
    2.1628   -2.3199    1.4398 H   0  0  0  0  0  0  0  0  0  0  0  0
    5.8318    0.5136    3.1752 H   0  0  0  0  0  0  0  0  0  0  0  0
    4.6545    1.1818    1.1188 H   0  0  0  0  0  0  0  0  0  0  0  0
    5.7433   -2.3073    4.7045 H   0  0  0  0  0  0  0  0  0  0  0  0
    3.2216   -4.2136    2.9270 H   0  0  0  0  0  0  0  0  0  0  0  0
    2.0638   -3.2662    3.8675 H   0  0  0  0  0  0  0  0  0  0  0  0
    4.4229   -3.1865    5.4813 H   0  0  0  0  0  0  0  0  0  0  0  0
    2.8558   -5.7487    5.3489 H   0  0  0  0  0  0  0  0  0  0  0  0
    4.1364   -5.1344    6.5559 H   0  0  0  0  0  0  0  0  0  0  0  0
  1  2  1  0  0  0  0
  1 14  1  0  0  0  0
  1 15  1  0  0  0  0
  1 16  1  0  0  0  0
  2  3  2  0  0  0  0
  2  4  1  0  0  0  0
  4  5  2  0  0  0  0
  4  9  1  0  0  0  0
  5  6  1  0  0  0  0
  5 17  1  0  0  0  0
  6  7  2  0  0  0  0
  6 11  1  0  0  0  0
  7  8  1  0  0  0  0
  7 10  1  0  0  0  0
  8  9  2  0  0  0  0
  8 18  1  0  0  0  0
  9 19  1  0  0  0  0
 10 20  1  0  0  0  0
 11 12  1  0  0  0  0
 11 21  1  0  0  0  0
 11 22  1  0  0  0  0
 12 13  2  0  0  0  0
 12 23  1  0  0  0  0
 13 24  1  0  0  0  0
 13 25  1  0  0  0  0
M  END
$$$$
