
 OpenBabel07122215493D

 17 17  0  0  0  0  0  0  0  0999 V2000
    1.0590    0.1113   -0.1135 C   0  0  0  0  0  0  0  0  0  0  0  0
    2.5777    0.0045   -0.0946 C   0  0  0  0  0  0  0  0  0  0  0  0
    3.1005   -1.2165   -0.7609 C   0  0  0  0  0  0  0  0  0  0  0  0
    4.0941   -0.8897   -1.5860 C   0  0  0  0  0  0  0  0  0  0  0  0
    4.2604    0.5760   -1.5132 C   0  0  0  0  0  0  0  0  0  0  0  0
    5.1698    1.2293   -1.9970 O   0  0  0  0  0  0  0  0  0  0  0  0
    3.2052    1.0798   -0.8023 O   0  0  0  0  0  0  0  0  0  0  0  0
    4.8403   -1.7213   -2.3703 O   0  0  0  0  0  0  0  0  0  0  0  0
    2.5612   -2.5769   -0.5174 C   0  0  0  0  0  0  0  0  0  0  0  0
    0.6151   -0.6857    0.4946 H   0  0  0  0  0  0  0  0  0  0  0  0
    0.6541    0.0304   -1.1275 H   0  0  0  0  0  0  0  0  0  0  0  0
    0.7203    1.0654    0.3015 H   0  0  0  0  0  0  0  0  0  0  0  0
    2.9230    0.0682    0.9432 H   0  0  0  0  0  0  0  0  0  0  0  0
    4.5128   -2.6285   -2.2571 H   0  0  0  0  0  0  0  0  0  0  0  0
    1.7493   -2.5737    0.2138 H   0  0  0  0  0  0  0  0  0  0  0  0
    3.3453   -3.2359   -0.1353 H   0  0  0  0  0  0  0  0  0  0  0  0
    2.1656   -2.9927   -1.4499 H   0  0  0  0  0  0  0  0  0  0  0  0
  1  2  1  0  0  0  0
  1 10  1  0  0  0  0
  1 11  1  0  0  0  0
  1 12  1  0  0  0  0
  2  3  1  0  0  0  0
  2  7  1  0  0  0  0
  2 13  1  0  0  0  0
  3  4  2  0  0  0  0
  3  9  1  0  0  0  0
  4  5  1  0  0  0  0
  4  8  1  0  0  0  0
  5  6  2  0  0  0  0
  5  7  1  0  0  0  0
  8 14  1  0  0  0  0
  9 15  1  0  0  0  0
  9 16  1  0  0  0  0
  9 17  1  0  0  0  0
M  END
$$$$
