
 OpenBabel07202215583D

 20 19  0  0  0  0  0  0  0  0999 V2000
    1.1186   -0.0383    0.0223 C   0  0  0  0  0  0  0  0  0  0  0  0
    2.6376   -0.0219    0.0328 C   0  0  0  0  0  0  0  0  0  0  0  0
    3.1119    1.0807    0.8284 O   0  0  0  0  0  0  0  0  0  0  0  0
    4.4747    1.1586    0.8985 C   0  0  0  0  0  0  0  0  0  0  0  0
    5.2339    0.3890    0.3186 O   0  0  0  0  0  0  0  0  0  0  0  0
    4.9396    2.3369    1.7505 C   0  0  0  0  0  0  0  0  0  0  0  0
    4.4351    2.2287    3.1858 C   0  0  0  0  0  0  0  0  0  0  0  0
    6.4708    2.3980    1.7639 C   0  0  0  0  0  0  0  0  0  0  0  0
    0.7436   -0.8737   -0.5789 H   0  0  0  0  0  0  0  0  0  0  0  0
    0.7210    0.8934   -0.3922 H   0  0  0  0  0  0  0  0  0  0  0  0
    0.7223   -0.1366    1.0378 H   0  0  0  0  0  0  0  0  0  0  0  0
    3.0028    0.0805   -0.9959 H   0  0  0  0  0  0  0  0  0  0  0  0
    3.0033   -0.9646    0.4565 H   0  0  0  0  0  0  0  0  0  0  0  0
    4.5640    3.2602    1.2922 H   0  0  0  0  0  0  0  0  0  0  0  0
    4.7816    1.3006    3.6535 H   0  0  0  0  0  0  0  0  0  0  0  0
    3.3420    2.2370    3.2279 H   0  0  0  0  0  0  0  0  0  0  0  0
    4.7994    3.0669    3.7916 H   0  0  0  0  0  0  0  0  0  0  0  0
    6.8951    1.4792    2.1860 H   0  0  0  0  0  0  0  0  0  0  0  0
    6.8326    3.2407    2.3628 H   0  0  0  0  0  0  0  0  0  0  0  0
    6.8687    2.5095    0.7496 H   0  0  0  0  0  0  0  0  0  0  0  0
  1  2  1  0  0  0  0
  1  9  1  0  0  0  0
  1 10  1  0  0  0  0
  1 11  1  0  0  0  0
  2  3  1  0  0  0  0
  2 12  1  0  0  0  0
  2 13  1  0  0  0  0
  3  4  1  0  0  0  0
  4  5  2  0  0  0  0
  4  6  1  0  0  0  0
  6  7  1  0  0  0  0
  6  8  1  0  0  0  0
  6 14  1  0  0  0  0
  7 15  1  0  0  0  0
  7 16  1  0  0  0  0
  7 17  1  0  0  0  0
  8 18  1  0  0  0  0
  8 19  1  0  0  0  0
  8 20  1  0  0  0  0
M  END
$$$$
