
 OpenBabel07222214433D

 31 30  0  0  0  0  0  0  0  0999 V2000
    1.0322    0.0310    0.0560 C   0  0  0  0  0  0  0  0  0  0  0  0
    2.5468    0.0250    0.0522 C   0  0  0  0  0  0  0  0  0  0  0  0
    3.0778   -1.3685   -0.2541 C   0  0  0  0  0  0  0  0  0  0  0  0
    4.5988   -1.3544   -0.2310 C   0  0  0  0  0  0  0  0  0  0  0  0
    5.1502   -2.7507   -0.4985 C   0  0  0  0  0  0  0  0  0  0  0  0
    6.6869   -2.8053   -0.5101 C   0  0  0  0  0  0  0  0  0  0  0  0
    7.3480   -2.2454    1.1203 S   0  0  0  0  0  0  0  0  0  0  0  0
    7.2156   -4.2153   -0.8754 C   0  0  0  0  0  0  0  0  0  0  0  0
    6.6938   -4.6811   -2.2483 C   0  0  0  0  0  0  0  0  0  0  0  0
    8.7535   -4.2562   -0.8862 C   0  0  0  0  0  0  0  0  0  0  0  0
    9.2163   -5.5697   -1.1816 O   0  0  0  0  0  0  0  0  0  0  0  0
    0.6600    1.0345    0.2776 H   0  0  0  0  0  0  0  0  0  0  0  0
    0.6453   -0.6569    0.8145 H   0  0  0  0  0  0  0  0  0  0  0  0
    0.6421   -0.2766   -0.9191 H   0  0  0  0  0  0  0  0  0  0  0  0
    2.9169    0.3572    1.0295 H   0  0  0  0  0  0  0  0  0  0  0  0
    2.9183    0.7367   -0.6944 H   0  0  0  0  0  0  0  0  0  0  0  0
    2.7197   -1.7038   -1.2351 H   0  0  0  0  0  0  0  0  0  0  0  0
    2.7042   -2.0833    0.4897 H   0  0  0  0  0  0  0  0  0  0  0  0
    4.9268   -0.9819    0.7439 H   0  0  0  0  0  0  0  0  0  0  0  0
    4.9776   -0.6612   -0.9919 H   0  0  0  0  0  0  0  0  0  0  0  0
    4.7610   -3.0548   -1.4763 H   0  0  0  0  0  0  0  0  0  0  0  0
    4.7488   -3.4672    0.2301 H   0  0  0  0  0  0  0  0  0  0  0  0
    7.0547   -2.0873   -1.2533 H   0  0  0  0  0  0  0  0  0  0  0  0
    6.7476   -3.1794    1.8720 H   0  0  0  0  0  0  0  0  0  0  0  0
    6.8494   -4.9424   -0.1372 H   0  0  0  0  0  0  0  0  0  0  0  0
    7.0009   -3.9868   -3.0379 H   0  0  0  0  0  0  0  0  0  0  0  0
    5.6036   -4.7628   -2.2707 H   0  0  0  0  0  0  0  0  0  0  0  0
    7.0742   -5.6753   -2.5021 H   0  0  0  0  0  0  0  0  0  0  0  0
    9.1862   -3.9796    0.0784 H   0  0  0  0  0  0  0  0  0  0  0  0
    9.1515   -3.5714   -1.6416 H   0  0  0  0  0  0  0  0  0  0  0  0
    8.8822   -6.1540   -0.4849 H   0  0  0  0  0  0  0  0  0  0  0  0
  1  2  1  0  0  0  0
  1 12  1  0  0  0  0
  1 13  1  0  0  0  0
  1 14  1  0  0  0  0
  2  3  1  0  0  0  0
  2 15  1  0  0  0  0
  2 16  1  0  0  0  0
  3  4  1  0  0  0  0
  3 17  1  0  0  0  0
  3 18  1  0  0  0  0
  4  5  1  0  0  0  0
  4 19  1  0  0  0  0
  4 20  1  0  0  0  0
  5  6  1  0  0  0  0
  5 21  1  0  0  0  0
  5 22  1  0  0  0  0
  6  7  1  0  0  0  0
  6  8  1  0  0  0  0
  6 23  1  0  0  0  0
  7 24  1  0  0  0  0
  8  9  1  0  0  0  0
  8 10  1  0  0  0  0
  8 25  1  0  0  0  0
  9 26  1  0  0  0  0
  9 27  1  0  0  0  0
  9 28  1  0  0  0  0
 10 11  1  0  0  0  0
 10 29  1  0  0  0  0
 10 30  1  0  0  0  0
 11 31  1  0  0  0  0
M  END
$$$$
