
 OpenBabel07122215493D

 35 36  0  0  0  0  0  0  0  0999 V2000
    0.8690    0.4232    0.2104 C   0  0  0  0  0  0  0  0  0  0  0  0
    2.3670    0.1712    0.0743 C   0  0  0  0  0  0  0  0  0  0  0  0
    2.8813   -0.3469   -1.2942 C   0  0  0  0  0  0  0  0  0  0  0  0
    2.1974   -1.6336   -1.9260 C   0  0  0  0  0  0  0  0  0  0  0  0
    3.4163   -2.6079   -2.0456 C   0  0  0  0  0  0  0  0  0  0  0  0
    3.9237   -3.0515   -0.6513 C   0  0  0  0  0  0  0  0  0  0  0  0
    4.6602   -1.8128   -0.1290 C   0  0  0  0  0  0  0  0  0  0  0  0
    4.4134   -0.7747   -1.2463 C   0  0  0  0  0  0  0  0  0  0  0  0
    4.5526   -1.6849   -2.4798 C   0  0  0  0  0  0  0  0  0  0  0  0
    5.4293    0.3593   -1.2467 C   0  0  0  0  0  0  0  0  0  0  0  0
    1.0744   -2.3093   -1.1286 C   0  0  0  0  0  0  0  0  0  0  0  0
    1.5840   -1.3440   -3.3199 C   0  0  0  0  0  0  0  0  0  0  0  0
    2.8052    0.7587   -2.2094 O   0  0  0  0  0  0  0  0  0  0  0  0
    0.6704    0.9934    1.1224 H   0  0  0  0  0  0  0  0  0  0  0  0
    0.3136   -0.5040    0.3518 H   0  0  0  0  0  0  0  0  0  0  0  0
    0.4499    0.9573   -0.6436 H   0  0  0  0  0  0  0  0  0  0  0  0
    2.6292   -0.5065    0.8870 H   0  0  0  0  0  0  0  0  0  0  0  0
    2.8686    1.1252    0.2853 H   0  0  0  0  0  0  0  0  0  0  0  0
    3.2321   -3.4523   -2.7149 H   0  0  0  0  0  0  0  0  0  0  0  0
    4.6268   -3.8863   -0.7432 H   0  0  0  0  0  0  0  0  0  0  0  0
    3.1362   -3.3768    0.0314 H   0  0  0  0  0  0  0  0  0  0  0  0
    5.7282   -2.0366   -0.0198 H   0  0  0  0  0  0  0  0  0  0  0  0
    4.3186   -1.5059    0.8607 H   0  0  0  0  0  0  0  0  0  0  0  0
    5.5186   -2.2045   -2.5262 H   0  0  0  0  0  0  0  0  0  0  0  0
    4.3893   -1.1765   -3.4329 H   0  0  0  0  0  0  0  0  0  0  0  0
    5.3083    1.0029   -0.3709 H   0  0  0  0  0  0  0  0  0  0  0  0
    5.3394    0.9820   -2.1439 H   0  0  0  0  0  0  0  0  0  0  0  0
    6.4542   -0.0304   -1.2366 H   0  0  0  0  0  0  0  0  0  0  0  0
    1.2983   -2.3941   -0.0629 H   0  0  0  0  0  0  0  0  0  0  0  0
    0.8813   -3.3204   -1.5038 H   0  0  0  0  0  0  0  0  0  0  0  0
    0.1320   -1.7634   -1.2433 H   0  0  0  0  0  0  0  0  0  0  0  0
    2.3083   -0.9616   -4.0441 H   0  0  0  0  0  0  0  0  0  0  0  0
    0.7796   -0.6020   -3.2357 H   0  0  0  0  0  0  0  0  0  0  0  0
    1.1411   -2.2499   -3.7485 H   0  0  0  0  0  0  0  0  0  0  0  0
    1.8846    1.0803   -2.2314 H   0  0  0  0  0  0  0  0  0  0  0  0
  1  2  1  0  0  0  0
  1 14  1  0  0  0  0
  1 15  1  0  0  0  0
  1 16  1  0  0  0  0
  2  3  1  0  0  0  0
  2 17  1  0  0  0  0
  2 18  1  0  0  0  0
  3  4  1  0  0  0  0
  3  8  1  0  0  0  0
  3 13  1  0  0  0  0
  4  5  1  0  0  0  0
  4 11  1  0  0  0  0
  4 12  1  0  0  0  0
  5  6  1  0  0  0  0
  5  9  1  0  0  0  0
  5 19  1  0  0  0  0
  6  7  1  0  0  0  0
  6 20  1  0  0  0  0
  6 21  1  0  0  0  0
  7  8  1  0  0  0  0
  7 22  1  0  0  0  0
  7 23  1  0  0  0  0
  8  9  1  0  0  0  0
  8 10  1  0  0  0  0
  9 24  1  0  0  0  0
  9 25  1  0  0  0  0
 10 26  1  0  0  0  0
 10 27  1  0  0  0  0
 10 28  1  0  0  0  0
 11 29  1  0  0  0  0
 11 30  1  0  0  0  0
 11 31  1  0  0  0  0
 12 32  1  0  0  0  0
 12 33  1  0  0  0  0
 12 34  1  0  0  0  0
 13 35  1  0  0  0  0
M  END
$$$$
