
 OpenBabel07222214433D

 19 19  0  0  0  0  0  0  0  0999 V2000
    0.9029   -0.0053    0.0624 C   0  0  0  0  0  0  0  0  0  0  0  0
    2.2444    0.0084    0.0698 C   0  0  0  0  0  0  0  0  0  0  0  0
    3.0386    0.5528    1.2194 C   0  0  0  0  0  0  0  0  0  0  0  0
    4.5311    0.4519    1.0206 C   0  0  0  0  0  0  0  0  0  0  0  0
    5.1601   -0.8004    0.9565 C   0  0  0  0  0  0  0  0  0  0  0  0
    6.5494   -0.8881    0.8828 C   0  0  0  0  0  0  0  0  0  0  0  0
    7.3174    0.2727    0.8123 C   0  0  0  0  0  0  0  0  0  0  0  0
    6.6997    1.5219    0.8392 C   0  0  0  0  0  0  0  0  0  0  0  0
    5.3129    1.6122    0.9498 C   0  0  0  0  0  0  0  0  0  0  0  0
    0.3579   -0.4099   -0.7827 H   0  0  0  0  0  0  0  0  0  0  0  0
    0.3322    0.3879    0.8971 H   0  0  0  0  0  0  0  0  0  0  0  0
    2.7814   -0.3907   -0.7869 H   0  0  0  0  0  0  0  0  0  0  0  0
    2.7859    0.0146    2.1421 H   0  0  0  0  0  0  0  0  0  0  0  0
    2.7611    1.6023    1.3805 H   0  0  0  0  0  0  0  0  0  0  0  0
    4.5675   -1.7129    0.9721 H   0  0  0  0  0  0  0  0  0  0  0  0
    7.0319   -1.8617    0.8914 H   0  0  0  0  0  0  0  0  0  0  0  0
    8.3987    0.2037    0.7357 H   0  0  0  0  0  0  0  0  0  0  0  0
    7.2979    2.4276    0.7901 H   0  0  0  0  0  0  0  0  0  0  0  0
    4.8447    2.5931    0.9887 H   0  0  0  0  0  0  0  0  0  0  0  0
  1  2  2  0  0  0  0
  1 10  1  0  0  0  0
  1 11  1  0  0  0  0
  2  3  1  0  0  0  0
  2 12  1  0  0  0  0
  3  4  1  0  0  0  0
  3 13  1  0  0  0  0
  3 14  1  0  0  0  0
  4  5  2  0  0  0  0
  4  9  1  0  0  0  0
  5  6  1  0  0  0  0
  5 15  1  0  0  0  0
  6  7  2  0  0  0  0
  6 16  1  0  0  0  0
  7  8  1  0  0  0  0
  7 17  1  0  0  0  0
  8  9  2  0  0  0  0
  8 18  1  0  0  0  0
  9 19  1  0  0  0  0
M  END
$$$$
