
 OpenBabel07202215583D

 42 41  0  0  0  0  0  0  0  0999 V2000
    1.0576   -0.0595    0.1224 C   0  0  0  0  0  0  0  0  0  0  0  0
    2.5652   -0.0073    0.0994 C   0  0  0  0  0  0  0  0  0  0  0  0
    3.2672    1.0482   -0.3553 C   0  0  0  0  0  0  0  0  0  0  0  0
    2.5877    2.2601   -0.8726 C   0  0  0  0  0  0  0  0  0  0  0  0
    3.5065    3.3817   -1.3453 C   0  0  0  0  0  0  0  0  0  0  0  0
    2.7157    4.5715   -1.8258 C   0  0  0  0  0  0  0  0  0  0  0  0
    1.3659    4.5872   -1.8005 C   0  0  0  0  0  0  0  0  0  0  0  0
    0.5932    5.7159   -2.3392 C   0  0  0  0  0  0  0  0  0  0  0  0
   -0.9184    5.5488   -2.2796 C   0  0  0  0  0  0  0  0  0  0  0  0
   -1.6399    6.7987   -2.8262 C   0  0  0  0  0  0  0  0  0  0  0  0
   -1.3536    8.0330   -1.9621 C   0  0  0  0  0  0  0  0  0  0  0  0
   -1.3132    7.0520   -4.2840 C   0  0  0  0  0  0  0  0  0  0  0  0
   -0.1203    7.4644   -4.7620 C   0  0  0  0  0  0  0  0  0  0  0  0
   -3.0461    6.5420   -2.7599 O   0  0  0  0  0  0  0  0  0  0  0  0
    3.5100    5.7398   -2.3568 C   0  0  0  0  0  0  0  0  0  0  0  0
    3.2977   -1.2046    0.6142 C   0  0  0  0  0  0  0  0  0  0  0  0
    0.5802    0.8463   -0.2666 H   0  0  0  0  0  0  0  0  0  0  0  0
    0.6969   -0.1852    1.1474 H   0  0  0  0  0  0  0  0  0  0  0  0
    0.6966   -0.8894   -0.4921 H   0  0  0  0  0  0  0  0  0  0  0  0
    4.3528    1.0391   -0.3511 H   0  0  0  0  0  0  0  0  0  0  0  0
    1.9520    2.6493   -0.0640 H   0  0  0  0  0  0  0  0  0  0  0  0
    1.9505    1.9523   -1.7148 H   0  0  0  0  0  0  0  0  0  0  0  0
    4.1411    3.0172   -2.1622 H   0  0  0  0  0  0  0  0  0  0  0  0
    4.1598    3.6981   -0.5244 H   0  0  0  0  0  0  0  0  0  0  0  0
    0.7664    3.7542   -1.4521 H   0  0  0  0  0  0  0  0  0  0  0  0
    0.9021    5.7618   -3.3822 H   0  0  0  0  0  0  0  0  0  0  0  0
    0.8985    6.6199   -1.8067 H   0  0  0  0  0  0  0  0  0  0  0  0
   -1.2387    5.3491   -1.2470 H   0  0  0  0  0  0  0  0  0  0  0  0
   -1.2222    4.6570   -2.8475 H   0  0  0  0  0  0  0  0  0  0  0  0
   -0.3011    8.3311   -1.9878 H   0  0  0  0  0  0  0  0  0  0  0  0
   -1.6238    7.8466   -0.9165 H   0  0  0  0  0  0  0  0  0  0  0  0
   -1.9454    8.8898   -2.2984 H   0  0  0  0  0  0  0  0  0  0  0  0
   -2.1058    6.8518   -4.9989 H   0  0  0  0  0  0  0  0  0  0  0  0
    0.7179    7.6766   -4.1058 H   0  0  0  0  0  0  0  0  0  0  0  0
    0.0759    7.5396   -5.8227 H   0  0  0  0  0  0  0  0  0  0  0  0
   -3.2690    6.3706   -1.8286 H   0  0  0  0  0  0  0  0  0  0  0  0
    4.5872    5.5658   -2.2864 H   0  0  0  0  0  0  0  0  0  0  0  0
    3.2866    6.6484   -1.7863 H   0  0  0  0  0  0  0  0  0  0  0  0
    3.2761    5.9244   -3.4118 H   0  0  0  0  0  0  0  0  0  0  0  0
    2.6042   -1.9810    0.9477 H   0  0  0  0  0  0  0  0  0  0  0  0
    3.9287   -0.9253    1.4643 H   0  0  0  0  0  0  0  0  0  0  0  0
    3.9290   -1.6289   -0.1734 H   0  0  0  0  0  0  0  0  0  0  0  0
  1  2  1  0  0  0  0
  1 17  1  0  0  0  0
  1 18  1  0  0  0  0
  1 19  1  0  0  0  0
  2  3  2  0  0  0  0
  2 16  1  0  0  0  0
  3  4  1  0  0  0  0
  3 20  1  0  0  0  0
  4  5  1  0  0  0  0
  4 21  1  0  0  0  0
  4 22  1  0  0  0  0
  5  6  1  0  0  0  0
  5 23  1  0  0  0  0
  5 24  1  0  0  0  0
  6  7  2  0  0  0  0
  6 15  1  0  0  0  0
  7  8  1  0  0  0  0
  7 25  1  0  0  0  0
  8  9  1  0  0  0  0
  8 26  1  0  0  0  0
  8 27  1  0  0  0  0
  9 10  1  0  0  0  0
  9 28  1  0  0  0  0
  9 29  1  0  0  0  0
 10 11  1  0  0  0  0
 10 12  1  0  0  0  0
 10 14  1  0  0  0  0
 11 30  1  0  0  0  0
 11 31  1  0  0  0  0
 11 32  1  0  0  0  0
 12 13  2  0  0  0  0
 12 33  1  0  0  0  0
 13 34  1  0  0  0  0
 13 35  1  0  0  0  0
 14 36  1  0  0  0  0
 15 37  1  0  0  0  0
 15 38  1  0  0  0  0
 15 39  1  0  0  0  0
 16 40  1  0  0  0  0
 16 41  1  0  0  0  0
 16 42  1  0  0  0  0
M  END
$$$$
