
 OpenBabel07222214433D

 23 22  0  0  0  0  0  0  0  0999 V2000
    1.0243    0.0584    0.0680 C   0  0  0  0  0  0  0  0  0  0  0  0
    2.5447    0.0666    0.0774 C   0  0  0  0  0  0  0  0  0  0  0  0
    3.0815    1.0076    1.1555 C   0  0  0  0  0  0  0  0  0  0  0  0
    4.6113    1.0264    1.1770 C   0  0  0  0  0  0  0  0  0  0  0  0
    5.1434    1.9687    2.2567 C   0  0  0  0  0  0  0  0  0  0  0  0
    6.5828    1.9588    2.2453 O   0  0  0  0  0  0  0  0  0  0  0  0
    7.1485    2.7746    3.1800 C   0  0  0  0  0  0  0  0  0  0  0  0
    6.5255    3.4688    3.9754 O   0  0  0  0  0  0  0  0  0  0  0  0
    8.6495    2.7328    3.1321 C   0  0  0  0  0  0  0  0  0  0  0  0
    0.6504   -0.6179   -0.7068 H   0  0  0  0  0  0  0  0  0  0  0  0
    0.6302    1.0596   -0.1339 H   0  0  0  0  0  0  0  0  0  0  0  0
    0.6302   -0.2770    1.0327 H   0  0  0  0  0  0  0  0  0  0  0  0
    2.9103    0.3786   -0.9078 H   0  0  0  0  0  0  0  0  0  0  0  0
    2.9103   -0.9517    0.2533 H   0  0  0  0  0  0  0  0  0  0  0  0
    2.7018    0.6922    2.1353 H   0  0  0  0  0  0  0  0  0  0  0  0
    2.7018    2.0211    0.9755 H   0  0  0  0  0  0  0  0  0  0  0  0
    4.9966    1.3346    0.1974 H   0  0  0  0  0  0  0  0  0  0  0  0
    4.9966    0.0141    1.3500 H   0  0  0  0  0  0  0  0  0  0  0  0
    4.7860    1.6386    3.2394 H   0  0  0  0  0  0  0  0  0  0  0  0
    4.7860    2.9870    2.0624 H   0  0  0  0  0  0  0  0  0  0  0  0
    9.0105    2.0542    2.3546 H   0  0  0  0  0  0  0  0  0  0  0  0
    9.0326    2.3875    4.0967 H   0  0  0  0  0  0  0  0  0  0  0  0
    9.0326    3.7353    2.9203 H   0  0  0  0  0  0  0  0  0  0  0  0
  1  2  1  0  0  0  0
  1 10  1  0  0  0  0
  1 11  1  0  0  0  0
  1 12  1  0  0  0  0
  2  3  1  0  0  0  0
  2 13  1  0  0  0  0
  2 14  1  0  0  0  0
  3  4  1  0  0  0  0
  3 15  1  0  0  0  0
  3 16  1  0  0  0  0
  4  5  1  0  0  0  0
  4 17  1  0  0  0  0
  4 18  1  0  0  0  0
  5  6  1  0  0  0  0
  5 19  1  0  0  0  0
  5 20  1  0  0  0  0
  6  7  1  0  0  0  0
  7  8  2  0  0  0  0
  7  9  1  0  0  0  0
  9 21  1  0  0  0  0
  9 22  1  0  0  0  0
  9 23  1  0  0  0  0
M  END
$$$$
