
 OpenBabel07122215493D

 16 16  0  0  0  0  0  0  0  0999 V2000
    1.0343   -0.0199   -0.0756 O   0  0  0  0  0  0  0  0  0  0  0  0
    2.4559    0.0556   -0.0728 C   0  0  0  0  0  0  0  0  0  0  0  0
    2.9339    1.4756   -0.2444 C   0  0  0  0  0  0  0  0  0  0  0  0
    4.3066    1.7402   -0.3849 C   0  0  0  0  0  0  0  0  0  0  0  0
    4.7721    3.0582   -0.4285 C   0  0  0  0  0  0  0  0  0  0  0  0
    3.8739    4.1207   -0.3793 C   0  0  0  0  0  0  0  0  0  0  0  0
    2.5075    3.8713   -0.2737 C   0  0  0  0  0  0  0  0  0  0  0  0
    2.0456    2.5573   -0.1983 C   0  0  0  0  0  0  0  0  0  0  0  0
    0.7984   -0.9411    0.1183 H   0  0  0  0  0  0  0  0  0  0  0  0
    2.8319   -0.5784   -0.8815 H   0  0  0  0  0  0  0  0  0  0  0  0
    2.8139   -0.3259    0.8897 H   0  0  0  0  0  0  0  0  0  0  0  0
    5.0229    0.9251   -0.4456 H   0  0  0  0  0  0  0  0  0  0  0  0
    5.8400    3.2560   -0.4889 H   0  0  0  0  0  0  0  0  0  0  0  0
    4.2337    5.1453   -0.4200 H   0  0  0  0  0  0  0  0  0  0  0  0
    1.7998    4.6928   -0.2331 H   0  0  0  0  0  0  0  0  0  0  0  0
    0.9764    2.3812   -0.0919 H   0  0  0  0  0  0  0  0  0  0  0  0
  1  2  1  0  0  0  0
  1  9  1  0  0  0  0
  2  3  1  0  0  0  0
  2 10  1  0  0  0  0
  2 11  1  0  0  0  0
  3  4  1  0  0  0  0
  3  8  2  0  0  0  0
  4  5  2  0  0  0  0
  4 12  1  0  0  0  0
  5  6  1  0  0  0  0
  5 13  1  0  0  0  0
  6  7  2  0  0  0  0
  6 14  1  0  0  0  0
  7  8  1  0  0  0  0
  7 15  1  0  0  0  0
  8 16  1  0  0  0  0
M  END
$$$$
