
 OpenBabel07202215583D

 18 17  0  0  0  0  0  0  0  0999 V2000
    0.9694    0.0332   -0.0904 C   0  0  0  0  0  0  0  0  0  0  0  0
    2.4875    0.0711   -0.0513 C   0  0  0  0  0  0  0  0  0  0  0  0
    2.9812    1.0657    0.9773 C   0  0  0  0  0  0  0  0  0  0  0  0
    2.2567    1.7531    1.6882 O   0  0  0  0  0  0  0  0  0  0  0  0
    4.4888    1.2014    1.1176 C   0  0  0  0  0  0  0  0  0  0  0  0
    5.2133    0.5139    0.4067 O   0  0  0  0  0  0  0  0  0  0  0  0
    4.9825    2.1960    2.1462 C   0  0  0  0  0  0  0  0  0  0  0  0
    6.5006    2.2338    2.1853 C   0  0  0  0  0  0  0  0  0  0  0  0
    0.6153   -0.6862   -0.8345 H   0  0  0  0  0  0  0  0  0  0  0  0
    0.5632    1.0182   -0.3443 H   0  0  0  0  0  0  0  0  0  0  0  0
    0.5632   -0.2535    0.8855 H   0  0  0  0  0  0  0  0  0  0  0  0
    2.8712    0.3579   -1.0364 H   0  0  0  0  0  0  0  0  0  0  0  0
    2.8712   -0.9231    0.2023 H   0  0  0  0  0  0  0  0  0  0  0  0
    4.5988    1.9092    3.1313 H   0  0  0  0  0  0  0  0  0  0  0  0
    4.5988    3.1902    1.8926 H   0  0  0  0  0  0  0  0  0  0  0  0
    6.9068    1.2489    2.4391 H   0  0  0  0  0  0  0  0  0  0  0  0
    6.8547    2.9533    2.9293 H   0  0  0  0  0  0  0  0  0  0  0  0
    6.9068    2.5206    1.2094 H   0  0  0  0  0  0  0  0  0  0  0  0
  1  2  1  0  0  0  0
  1  9  1  0  0  0  0
  1 10  1  0  0  0  0
  1 11  1  0  0  0  0
  2  3  1  0  0  0  0
  2 12  1  0  0  0  0
  2 13  1  0  0  0  0
  3  4  2  0  0  0  0
  3  5  1  0  0  0  0
  5  6  2  0  0  0  0
  5  7  1  0  0  0  0
  7  8  1  0  0  0  0
  7 14  1  0  0  0  0
  7 15  1  0  0  0  0
  8 16  1  0  0  0  0
  8 17  1  0  0  0  0
  8 18  1  0  0  0  0
M  END
$$$$
