
 OpenBabel07122215493D

 30 29  0  0  0  0  0  0  0  0999 V2000
    0.9558    0.0372    0.1067 C   0  0  0  0  0  0  0  0  0  0  0  0
    2.4735    0.0430    0.0977 C   0  0  0  0  0  0  0  0  0  0  0  0
    3.0032    0.8133   -1.1061 C   0  0  0  0  0  0  0  0  0  0  0  0
    4.5265    0.8205   -1.1175 C   0  0  0  0  0  0  0  0  0  0  0  0
    5.0474    1.5920   -2.3233 C   0  0  0  0  0  0  0  0  0  0  0  0
    6.5706    1.5997   -2.3357 C   0  0  0  0  0  0  0  0  0  0  0  0
    7.0902    2.3714   -3.5418 C   0  0  0  0  0  0  0  0  0  0  0  0
    8.6125    2.3850   -3.5614 C   0  0  0  0  0  0  0  0  0  0  0  0
    9.1317    3.1567   -4.7638 C   0  0  0  0  0  0  0  0  0  0  0  0
   10.5521    3.1489   -4.7615 O   0  0  0  0  0  0  0  0  0  0  0  0
    0.5837   -0.5169    0.9728 H   0  0  0  0  0  0  0  0  0  0  0  0
    0.5638   -0.4364   -0.7990 H   0  0  0  0  0  0  0  0  0  0  0  0
    0.5638    1.0581    0.1573 H   0  0  0  0  0  0  0  0  0  0  0  0
    2.8428   -0.9888    0.0725 H   0  0  0  0  0  0  0  0  0  0  0  0
    2.8428    0.4983    1.0240 H   0  0  0  0  0  0  0  0  0  0  0  0
    2.6302    1.8446   -1.0805 H   0  0  0  0  0  0  0  0  0  0  0  0
    2.6301    0.3579   -2.0318 H   0  0  0  0  0  0  0  0  0  0  0  0
    4.9032   -0.2092   -1.1463 H   0  0  0  0  0  0  0  0  0  0  0  0
    4.9032    1.2782   -0.1947 H   0  0  0  0  0  0  0  0  0  0  0  0
    4.6713    2.6221   -2.2956 H   0  0  0  0  0  0  0  0  0  0  0  0
    4.6712    1.1352   -3.2470 H   0  0  0  0  0  0  0  0  0  0  0  0
    6.9458    0.5694   -2.3635 H   0  0  0  0  0  0  0  0  0  0  0  0
    6.9457    2.0568   -1.4118 H   0  0  0  0  0  0  0  0  0  0  0  0
    6.7106    3.4002   -3.5122 H   0  0  0  0  0  0  0  0  0  0  0  0
    6.7111    1.9133   -4.4636 H   0  0  0  0  0  0  0  0  0  0  0  0
    9.0032    1.3600   -3.5850 H   0  0  0  0  0  0  0  0  0  0  0  0
    8.9999    2.8332   -2.6380 H   0  0  0  0  0  0  0  0  0  0  0  0
    8.7882    4.1960   -4.7450 H   0  0  0  0  0  0  0  0  0  0  0  0
    8.7883    2.6982   -5.6960 H   0  0  0  0  0  0  0  0  0  0  0  0
   10.8436    3.5620   -3.9335 H   0  0  0  0  0  0  0  0  0  0  0  0
  1  2  1  0  0  0  0
  1 11  1  0  0  0  0
  1 12  1  0  0  0  0
  1 13  1  0  0  0  0
  2  3  1  0  0  0  0
  2 14  1  0  0  0  0
  2 15  1  0  0  0  0
  3  4  1  0  0  0  0
  3 16  1  0  0  0  0
  3 17  1  0  0  0  0
  4  5  1  0  0  0  0
  4 18  1  0  0  0  0
  4 19  1  0  0  0  0
  5  6  1  0  0  0  0
  5 20  1  0  0  0  0
  5 21  1  0  0  0  0
  6  7  1  0  0  0  0
  6 22  1  0  0  0  0
  6 23  1  0  0  0  0
  7  8  1  0  0  0  0
  7 24  1  0  0  0  0
  7 25  1  0  0  0  0
  8  9  1  0  0  0  0
  8 26  1  0  0  0  0
  8 27  1  0  0  0  0
  9 10  1  0  0  0  0
  9 28  1  0  0  0  0
  9 29  1  0  0  0  0
 10 30  1  0  0  0  0
M  END
$$$$
