
 OpenBabel07222214433D

 29 28  0  0  0  0  0  0  0  0999 V2000
    0.9818   -0.0018   -0.1068 C   0  0  0  0  0  0  0  0  0  0  0  0
    2.4984   -0.0091   -0.1023 C   0  0  0  0  0  0  0  0  0  0  0  0
    3.0235   -1.2303    0.6416 C   0  0  0  0  0  0  0  0  0  0  0  0
    4.5453   -1.2414    0.6483 C   0  0  0  0  0  0  0  0  0  0  0  0
    5.0660   -2.4637    1.3929 C   0  0  0  0  0  0  0  0  0  0  0  0
    6.5898   -2.4712    1.3975 C   0  0  0  0  0  0  0  0  0  0  0  0
    7.1224   -3.6921    2.1411 C   0  0  0  0  0  0  0  0  0  0  0  0
    8.6235   -3.7158    2.1555 C   0  0  0  0  0  0  0  0  0  0  0  0
    9.3018   -4.7026    2.7567 C   0  0  0  0  0  0  0  0  0  0  0  0
   10.7761   -4.7211    2.7680 C   0  0  0  0  0  0  0  0  0  0  0  0
   11.3933   -5.6255    3.3188 O   0  0  0  0  0  0  0  0  0  0  0  0
    0.6079    0.8755   -0.6412 H   0  0  0  0  0  0  0  0  0  0  0  0
    0.5921    0.0246    0.9159 H   0  0  0  0  0  0  0  0  0  0  0  0
    0.5921   -0.8984   -0.5993 H   0  0  0  0  0  0  0  0  0  0  0  0
    2.8687    0.9063    0.3739 H   0  0  0  0  0  0  0  0  0  0  0  0
    2.8687   -0.0124   -1.1342 H   0  0  0  0  0  0  0  0  0  0  0  0
    2.6495   -2.1451    0.1653 H   0  0  0  0  0  0  0  0  0  0  0  0
    2.6495   -1.2267    1.6729 H   0  0  0  0  0  0  0  0  0  0  0  0
    4.9211   -0.3283    1.1260 H   0  0  0  0  0  0  0  0  0  0  0  0
    4.9211   -1.2469   -0.3822 H   0  0  0  0  0  0  0  0  0  0  0  0
    4.6896   -3.3767    0.9153 H   0  0  0  0  0  0  0  0  0  0  0  0
    4.6896   -2.4582    2.4233 H   0  0  0  0  0  0  0  0  0  0  0  0
    6.9590   -1.5531    1.8719 H   0  0  0  0  0  0  0  0  0  0  0  0
    6.9590   -2.4716    0.3640 H   0  0  0  0  0  0  0  0  0  0  0  0
    6.7464   -4.6017    1.6567 H   0  0  0  0  0  0  0  0  0  0  0  0
    6.7464   -3.6789    3.1716 H   0  0  0  0  0  0  0  0  0  0  0  0
    9.1490   -2.9021    1.6599 H   0  0  0  0  0  0  0  0  0  0  0  0
    8.8084   -5.5266    3.2586 H   0  0  0  0  0  0  0  0  0  0  0  0
   11.2840   -3.8859    2.2592 H   0  0  0  0  0  0  0  0  0  0  0  0
  1  2  1  0  0  0  0
  1 12  1  0  0  0  0
  1 13  1  0  0  0  0
  1 14  1  0  0  0  0
  2  3  1  0  0  0  0
  2 15  1  0  0  0  0
  2 16  1  0  0  0  0
  3  4  1  0  0  0  0
  3 17  1  0  0  0  0
  3 18  1  0  0  0  0
  4  5  1  0  0  0  0
  4 19  1  0  0  0  0
  4 20  1  0  0  0  0
  5  6  1  0  0  0  0
  5 21  1  0  0  0  0
  5 22  1  0  0  0  0
  6  7  1  0  0  0  0
  6 23  1  0  0  0  0
  6 24  1  0  0  0  0
  7  8  1  0  0  0  0
  7 25  1  0  0  0  0
  7 26  1  0  0  0  0
  8  9  2  0  0  0  0
  8 27  1  0  0  0  0
  9 10  1  0  0  0  0
  9 28  1  0  0  0  0
 10 11  2  0  0  0  0
 10 29  1  0  0  0  0
M  END
$$$$
