
 OpenBabel07202215583D

 27 26  0  0  0  0  0  0  0  0999 V2000
    0.9752   -0.2066   -0.1170 C   0  0  0  0  0  0  0  0  0  0  0  0
    2.4994   -0.2732   -0.1811 C   0  0  0  0  0  0  0  0  0  0  0  0
    3.0290    1.1457   -0.2928 C   0  0  0  0  0  0  0  0  0  0  0  0
    4.5398    1.3003   -0.2067 C   0  0  0  0  0  0  0  0  0  0  0  0
    5.0095    2.7760   -0.2666 C   0  0  0  0  0  0  0  0  0  0  0  0
    4.5275    3.6683    0.9113 C   0  0  0  0  0  0  0  0  0  0  0  0
    3.0327    3.9566    1.0122 C   0  0  0  0  0  0  0  0  0  0  0  0
    6.5549    2.7843   -0.3135 C   0  0  0  0  0  0  0  0  0  0  0  0
    7.0722    4.1003   -0.4472 O   0  0  0  0  0  0  0  0  0  0  0  0
    0.5439   -1.2032   -0.0062 H   0  0  0  0  0  0  0  0  0  0  0  0
    0.5676    0.2570   -1.0219 H   0  0  0  0  0  0  0  0  0  0  0  0
    0.6475    0.3996    0.7375 H   0  0  0  0  0  0  0  0  0  0  0  0
    2.8289   -0.8872   -1.0231 H   0  0  0  0  0  0  0  0  0  0  0  0
    2.8733   -0.7294    0.7432 H   0  0  0  0  0  0  0  0  0  0  0  0
    2.5898    1.6268    0.5662 H   0  0  0  0  0  0  0  0  0  0  0  0
    2.6438    1.6425   -1.1908 H   0  0  0  0  0  0  0  0  0  0  0  0
    4.9960    0.7418   -1.0349 H   0  0  0  0  0  0  0  0  0  0  0  0
    4.9048    0.8423    0.7206 H   0  0  0  0  0  0  0  0  0  0  0  0
    4.6471    3.2295   -1.1997 H   0  0  0  0  0  0  0  0  0  0  0  0
    5.0108    4.6482    0.8209 H   0  0  0  0  0  0  0  0  0  0  0  0
    4.8717    3.2363    1.8582 H   0  0  0  0  0  0  0  0  0  0  0  0
    2.5905    4.1520    0.0304 H   0  0  0  0  0  0  0  0  0  0  0  0
    2.8526    4.8220    1.6551 H   0  0  0  0  0  0  0  0  0  0  0  0
    2.4857    3.1556    1.5105 H   0  0  0  0  0  0  0  0  0  0  0  0
    6.9295    2.1913   -1.1548 H   0  0  0  0  0  0  0  0  0  0  0  0
    6.9714    2.3571    0.6065 H   0  0  0  0  0  0  0  0  0  0  0  0
    6.6953    4.4836   -1.2637 H   0  0  0  0  0  0  0  0  0  0  0  0
  1  2  1  0  0  0  0
  1 10  1  0  0  0  0
  1 11  1  0  0  0  0
  1 12  1  0  0  0  0
  2  3  1  0  0  0  0
  2 13  1  0  0  0  0
  2 14  1  0  0  0  0
  3  4  1  0  0  0  0
  3 15  1  0  0  0  0
  3 16  1  0  0  0  0
  4  5  1  0  0  0  0
  4 17  1  0  0  0  0
  4 18  1  0  0  0  0
  5  6  1  0  0  0  0
  5  8  1  0  0  0  0
  5 19  1  0  0  0  0
  6  7  1  0  0  0  0
  6 20  1  0  0  0  0
  6 21  1  0  0  0  0
  7 22  1  0  0  0  0
  7 23  1  0  0  0  0
  7 24  1  0  0  0  0
  8  9  1  0  0  0  0
  8 25  1  0  0  0  0
  8 26  1  0  0  0  0
  9 27  1  0  0  0  0
M  END
$$$$
