
 OpenBabel07222214433D

 29 29  0  0  1  0  0  0  0  0999 V2000
   -2.6081    1.0784    0.0207 C   0  0  0  0  0  0  0  0  0  0  0  0
   -1.3061    0.3697   -0.3164 C   0  0  2  0  0  0  0  0  0  0  0  0
   -1.3440   -1.1091    0.0757 C   0  0  0  0  0  0  0  0  0  0  0  0
   -0.0247   -1.7945   -0.2758 C   0  0  0  0  0  0  0  0  0  0  0  0
    1.2041   -1.1069    0.3546 C   0  0  2  0  0  0  0  0  0  0  0  0
    1.1298    0.3927    0.0427 C   0  0  0  0  0  0  0  0  0  0  0  0
    2.0561    1.0530   -0.4137 O   0  0  0  0  0  0  0  0  0  0  0  0
   -0.1600    1.0742    0.3961 C   0  0  0  0  0  0  0  0  0  0  0  0
    2.5262   -1.7308   -0.1520 C   0  0  0  0  0  0  0  0  0  0  0  0
    3.7525   -1.1194    0.5402 C   0  0  0  0  0  0  0  0  0  0  0  0
    2.5603   -3.2455    0.0792 C   0  0  0  0  0  0  0  0  0  0  0  0
   -3.4569    0.6010   -0.4757 H   0  0  0  0  0  0  0  0  0  0  0  0
   -2.5614    2.1218   -0.3097 H   0  0  0  0  0  0  0  0  0  0  0  0
   -2.7875    1.0744    1.1009 H   0  0  0  0  0  0  0  0  0  0  0  0
   -1.1465    0.4285   -1.4023 H   0  0  0  0  0  0  0  0  0  0  0  0
   -2.1603   -1.6196   -0.4496 H   0  0  0  0  0  0  0  0  0  0  0  0
   -1.5360   -1.2188    1.1503 H   0  0  0  0  0  0  0  0  0  0  0  0
    0.0883   -1.8134   -1.3679 H   0  0  0  0  0  0  0  0  0  0  0  0
   -0.0984   -2.8352    0.0582 H   0  0  0  0  0  0  0  0  0  0  0  0
    1.1493   -1.2156    1.4466 H   0  0  0  0  0  0  0  0  0  0  0  0
   -0.0945    2.1195    0.0754 H   0  0  0  0  0  0  0  0  0  0  0  0
   -0.2763    1.0573    1.4852 H   0  0  0  0  0  0  0  0  0  0  0  0
    2.6098   -1.5445   -1.2313 H   0  0  0  0  0  0  0  0  0  0  0  0
    3.7093   -1.2796    1.6219 H   0  0  0  0  0  0  0  0  0  0  0  0
    3.8487   -0.0449    0.3750 H   0  0  0  0  0  0  0  0  0  0  0  0
    4.6728   -1.5681    0.1547 H   0  0  0  0  0  0  0  0  0  0  0  0
    2.4788   -3.4745    1.1475 H   0  0  0  0  0  0  0  0  0  0  0  0
    3.4958   -3.6727   -0.2941 H   0  0  0  0  0  0  0  0  0  0  0  0
    1.7498   -3.7611   -0.4429 H   0  0  0  0  0  0  0  0  0  0  0  0
  1  2  1  0  0  0  0
  1 12  1  0  0  0  0
  1 13  1  0  0  0  0
  1 14  1  0  0  0  0
  2  3  1  0  0  0  0
  2  8  1  0  0  0  0
  2 15  1  6  0  0  0
  3  4  1  0  0  0  0
  3 16  1  0  0  0  0
  3 17  1  0  0  0  0
  4  5  1  0  0  0  0
  4 18  1  0  0  0  0
  4 19  1  0  0  0  0
  5  6  1  0  0  0  0
  5  9  1  0  0  0  0
  5 20  1  1  0  0  0
  6  7  2  0  0  0  0
  6  8  1  0  0  0  0
  8 21  1  0  0  0  0
  8 22  1  0  0  0  0
  9 10  1  0  0  0  0
  9 11  1  0  0  0  0
  9 23  1  0  0  0  0
 10 24  1  0  0  0  0
 10 25  1  0  0  0  0
 10 26  1  0  0  0  0
 11 27  1  0  0  0  0
 11 28  1  0  0  0  0
 11 29  1  0  0  0  0
M  END
$$$$
