
 OpenBabel07202215583D

 29 28  0  0  0  0  0  0  0  0999 V2000
    0.9181   -0.0670   -0.0596 C   0  0  0  0  0  0  0  0  0  0  0  0
    2.4322   -0.0758   -0.0641 C   0  0  0  0  0  0  0  0  0  0  0  0
    2.9861   -1.3162   -0.7051 C   0  0  0  0  0  0  0  0  0  0  0  0
    4.3040   -1.5362   -0.8188 C   0  0  0  0  0  0  0  0  0  0  0  0
    5.3176   -0.5556   -0.3121 C   0  0  0  0  0  0  0  0  0  0  0  0
    6.7387   -1.0310   -0.5578 C   0  0  0  0  0  0  0  0  0  0  0  0
    7.7282   -0.0022   -0.0261 C   0  0  0  0  0  0  0  0  0  0  0  0
    9.1565   -0.4679   -0.2668 C   0  0  0  0  0  0  0  0  0  0  0  0
   10.1477    0.5568    0.2628 C   0  0  0  0  0  0  0  0  0  0  0  0
   11.5618    0.1046    0.0291 C   0  0  0  0  0  0  0  0  0  0  0  0
   12.5355    0.7709    0.3735 O   0  0  0  0  0  0  0  0  0  0  0  0
    0.5529    0.8490    0.4138 H   0  0  0  0  0  0  0  0  0  0  0  0
    0.5263   -0.9233    0.4982 H   0  0  0  0  0  0  0  0  0  0  0  0
    0.5263   -0.1074   -1.0807 H   0  0  0  0  0  0  0  0  0  0  0  0
    2.7891   -0.0057    0.9706 H   0  0  0  0  0  0  0  0  0  0  0  0
    2.7891    0.8088   -0.6054 H   0  0  0  0  0  0  0  0  0  0  0  0
    2.2929   -2.0608   -1.0899 H   0  0  0  0  0  0  0  0  0  0  0  0
    4.6517   -2.4520   -1.2921 H   0  0  0  0  0  0  0  0  0  0  0  0
    5.1721   -0.4043    0.7650 H   0  0  0  0  0  0  0  0  0  0  0  0
    5.1721    0.4105   -0.8116 H   0  0  0  0  0  0  0  0  0  0  0  0
    6.9007   -1.1837   -1.6318 H   0  0  0  0  0  0  0  0  0  0  0  0
    6.9007   -1.9955   -0.0610 H   0  0  0  0  0  0  0  0  0  0  0  0
    7.5618    0.1533    1.0474 H   0  0  0  0  0  0  0  0  0  0  0  0
    7.5618    0.9635   -0.5202 H   0  0  0  0  0  0  0  0  0  0  0  0
    9.3182   -0.6278   -1.3402 H   0  0  0  0  0  0  0  0  0  0  0  0
    9.3182   -1.4361    0.2237 H   0  0  0  0  0  0  0  0  0  0  0  0
   10.0050    0.6968    1.3394 H   0  0  0  0  0  0  0  0  0  0  0  0
   10.0050    1.5160   -0.2458 H   0  0  0  0  0  0  0  0  0  0  0  0
   11.6964   -0.8678   -0.4734 H   0  0  0  0  0  0  0  0  0  0  0  0
  1  2  1  0  0  0  0
  1 12  1  0  0  0  0
  1 13  1  0  0  0  0
  1 14  1  0  0  0  0
  2  3  1  0  0  0  0
  2 15  1  0  0  0  0
  2 16  1  0  0  0  0
  3  4  2  0  0  0  0
  3 17  1  0  0  0  0
  4  5  1  0  0  0  0
  4 18  1  0  0  0  0
  5  6  1  0  0  0  0
  5 19  1  0  0  0  0
  5 20  1  0  0  0  0
  6  7  1  0  0  0  0
  6 21  1  0  0  0  0
  6 22  1  0  0  0  0
  7  8  1  0  0  0  0
  7 23  1  0  0  0  0
  7 24  1  0  0  0  0
  8  9  1  0  0  0  0
  8 25  1  0  0  0  0
  8 26  1  0  0  0  0
  9 10  1  0  0  0  0
  9 27  1  0  0  0  0
  9 28  1  0  0  0  0
 10 11  2  0  0  0  0
 10 29  1  0  0  0  0
M  END
$$$$
