
 OpenBabel07222214443D

 25 26  0  0  0  0  0  0  0  0999 V2000
    1.1273   -0.0640   -0.0440 C   0  0  0  0  0  0  0  0  0  0  0  0
    2.5564   -0.1019   -0.0376 O   0  0  0  0  0  0  0  0  0  0  0  0
    3.1278    0.5295   -1.1104 C   0  0  0  0  0  0  0  0  0  0  0  0
    4.1836   -0.1302   -1.7499 C   0  0  0  0  0  0  0  0  0  0  0  0
    4.8065    0.4381   -2.8751 C   0  0  0  0  0  0  0  0  0  0  0  0
    4.3494    1.6825   -3.3403 C   0  0  0  0  0  0  0  0  0  0  0  0
    3.3459    2.3731   -2.6556 C   0  0  0  0  0  0  0  0  0  0  0  0
    2.7416    1.7989   -1.5381 C   0  0  0  0  0  0  0  0  0  0  0  0
    4.8983    2.2667   -4.5931 C   0  0  0  0  0  0  0  0  0  0  0  0
    4.6038    3.4036   -4.9425 O   0  0  0  0  0  0  0  0  0  0  0  0
    5.7556    1.3588   -5.4407 C   0  0  0  0  0  0  0  0  0  0  0  0
    6.6987    0.5802   -4.5395 C   0  0  0  0  0  0  0  0  0  0  0  0
    5.8996   -0.3155   -3.5930 C   0  0  0  0  0  0  0  0  0  0  0  0
    0.7714   -0.5886    0.8481 H   0  0  0  0  0  0  0  0  0  0  0  0
    0.7321   -0.5842   -0.9235 H   0  0  0  0  0  0  0  0  0  0  0  0
    0.7313    0.9549    0.0070 H   0  0  0  0  0  0  0  0  0  0  0  0
    4.5042   -1.1019   -1.3788 H   0  0  0  0  0  0  0  0  0  0  0  0
    3.0195    3.3521   -2.9997 H   0  0  0  0  0  0  0  0  0  0  0  0
    1.9777    2.3631   -1.0141 H   0  0  0  0  0  0  0  0  0  0  0  0
    6.3262    1.9667   -6.1499 H   0  0  0  0  0  0  0  0  0  0  0  0
    5.0997    0.6905   -6.0108 H   0  0  0  0  0  0  0  0  0  0  0  0
    7.3119    1.2815   -3.9576 H   0  0  0  0  0  0  0  0  0  0  0  0
    7.3832   -0.0268   -5.1420 H   0  0  0  0  0  0  0  0  0  0  0  0
    6.5880   -0.7624   -2.8663 H   0  0  0  0  0  0  0  0  0  0  0  0
    5.4395   -1.1293   -4.1665 H   0  0  0  0  0  0  0  0  0  0  0  0
  1  2  1  0  0  0  0
  1 14  1  0  0  0  0
  1 15  1  0  0  0  0
  1 16  1  0  0  0  0
  2  3  1  0  0  0  0
  3  4  2  0  0  0  0
  3  8  1  0  0  0  0
  4  5  1  0  0  0  0
  4 17  1  0  0  0  0
  5  6  2  0  0  0  0
  5 13  1  0  0  0  0
  6  7  1  0  0  0  0
  6  9  1  0  0  0  0
  7  8  2  0  0  0  0
  7 18  1  0  0  0  0
  8 19  1  0  0  0  0
  9 10  2  0  0  0  0
  9 11  1  0  0  0  0
 11 12  1  0  0  0  0
 11 20  1  0  0  0  0
 11 21  1  0  0  0  0
 12 13  1  0  0  0  0
 12 22  1  0  0  0  0
 12 23  1  0  0  0  0
 13 24  1  0  0  0  0
 13 25  1  0  0  0  0
M  END
$$$$
