
 OpenBabel07222214433D

 17 17  0  0  0  0  0  0  0  0999 V2000
    0.9890    0.1156    0.0468 O   0  0  0  0  0  0  0  0  0  0  0  0
    2.2197    0.0892   -0.0285 C   0  0  0  0  0  0  0  0  0  0  0  0
    3.0976    1.2031    0.4795 C   0  0  0  0  0  0  0  0  0  0  0  0
    4.5890    0.9581    0.3972 C   0  0  0  0  0  0  0  0  0  0  0  0
    5.1473   -0.3286    0.4242 C   0  0  0  0  0  0  0  0  0  0  0  0
    6.5278   -0.5115    0.4811 C   0  0  0  0  0  0  0  0  0  0  0  0
    7.3772    0.5884    0.4693 C   0  0  0  0  0  0  0  0  0  0  0  0
    6.8447    1.8749    0.4369 C   0  0  0  0  0  0  0  0  0  0  0  0
    5.4600    2.0605    0.4119 C   0  0  0  0  0  0  0  0  0  0  0  0
    2.7096   -0.7715   -0.5047 H   0  0  0  0  0  0  0  0  0  0  0  0
    2.8424    1.3805    1.5310 H   0  0  0  0  0  0  0  0  0  0  0  0
    2.8407    2.0978   -0.1004 H   0  0  0  0  0  0  0  0  0  0  0  0
    4.5325   -1.2236    0.4161 H   0  0  0  0  0  0  0  0  0  0  0  0
    6.9325   -1.5176    0.5519 H   0  0  0  0  0  0  0  0  0  0  0  0
    8.4529    0.4396    0.4930 H   0  0  0  0  0  0  0  0  0  0  0  0
    7.5094    2.7350    0.4514 H   0  0  0  0  0  0  0  0  0  0  0  0
    5.0670    3.0763    0.4171 H   0  0  0  0  0  0  0  0  0  0  0  0
  1  2  2  0  0  0  0
  2  3  1  0  0  0  0
  2 10  1  0  0  0  0
  3  4  1  0  0  0  0
  3 11  1  0  0  0  0
  3 12  1  0  0  0  0
  4  5  1  0  0  0  0
  4  9  2  0  0  0  0
  5  6  2  0  0  0  0
  5 13  1  0  0  0  0
  6  7  1  0  0  0  0
  6 14  1  0  0  0  0
  7  8  2  0  0  0  0
  7 15  1  0  0  0  0
  8  9  1  0  0  0  0
  8 16  1  0  0  0  0
  9 17  1  0  0  0  0
M  END
$$$$
