
 OpenBabel07222214433D

 35 36  0  0  0  0  0  0  0  0999 V2000
    0.7036    0.0696    0.0011 C   0  0  0  0  0  0  0  0  0  0  0  0
    2.1931   -0.1265    0.1254 C   0  0  0  0  0  0  0  0  0  0  0  0
    3.1094    1.1028    0.3610 C   0  0  0  0  0  0  0  0  0  0  0  0
    3.7860    1.7693   -0.9122 C   0  0  0  0  0  0  0  0  0  0  0  0
    5.2822    1.3416   -0.7141 C   0  0  0  0  0  0  0  0  0  0  0  0
    5.4647   -0.1880   -0.8230 C   0  0  0  0  0  0  0  0  0  0  0  0
    4.9252   -0.7082    0.5172 C   0  0  0  0  0  0  0  0  0  0  0  0
    4.3655    0.5833    1.1785 C   0  0  0  0  0  0  0  0  0  0  0  0
    5.4881    1.5500    0.7950 C   0  0  0  0  0  0  0  0  0  0  0  0
    4.1269    0.4654    2.6786 C   0  0  0  0  0  0  0  0  0  0  0  0
    3.1796    1.3366   -2.2578 C   0  0  0  0  0  0  0  0  0  0  0  0
    3.7165    3.3256   -0.9379 C   0  0  0  0  0  0  0  0  0  0  0  0
    2.4063    2.0875    1.1206 O   0  0  0  0  0  0  0  0  0  0  0  0
    0.2642   -0.8918   -0.2914 H   0  0  0  0  0  0  0  0  0  0  0  0
    0.4402    0.8151   -0.7482 H   0  0  0  0  0  0  0  0  0  0  0  0
    0.2742    0.3410    0.9697 H   0  0  0  0  0  0  0  0  0  0  0  0
    2.5394   -0.7024   -0.7370 H   0  0  0  0  0  0  0  0  0  0  0  0
    2.2958   -0.8053    0.9813 H   0  0  0  0  0  0  0  0  0  0  0  0
    5.9852    1.8951   -1.3423 H   0  0  0  0  0  0  0  0  0  0  0  0
    6.5220   -0.4554   -0.9183 H   0  0  0  0  0  0  0  0  0  0  0  0
    4.9436   -0.6258   -1.6771 H   0  0  0  0  0  0  0  0  0  0  0  0
    5.7341   -1.1420    1.1154 H   0  0  0  0  0  0  0  0  0  0  0  0
    4.2054   -1.5175    0.3712 H   0  0  0  0  0  0  0  0  0  0  0  0
    6.4732    1.2082    1.1389 H   0  0  0  0  0  0  0  0  0  0  0  0
    5.3383    2.5702    1.1527 H   0  0  0  0  0  0  0  0  0  0  0  0
    3.2609   -0.1681    2.8984 H   0  0  0  0  0  0  0  0  0  0  0  0
    3.9352    1.4459    3.1297 H   0  0  0  0  0  0  0  0  0  0  0  0
    4.9912    0.0321    3.1897 H   0  0  0  0  0  0  0  0  0  0  0  0
    3.1934    0.2607   -2.4309 H   0  0  0  0  0  0  0  0  0  0  0  0
    3.7172    1.7936   -3.0963 H   0  0  0  0  0  0  0  0  0  0  0  0
    2.1342    1.6614   -2.3227 H   0  0  0  0  0  0  0  0  0  0  0  0
    4.1334    3.8026   -0.0473 H   0  0  0  0  0  0  0  0  0  0  0  0
    2.6835    3.6761   -1.0439 H   0  0  0  0  0  0  0  0  0  0  0  0
    4.2743    3.7202   -1.7982 H   0  0  0  0  0  0  0  0  0  0  0  0
    1.7146    2.4592    0.5608 H   0  0  0  0  0  0  0  0  0  0  0  0
  1  2  1  0  0  0  0
  1 14  1  0  0  0  0
  1 15  1  0  0  0  0
  1 16  1  0  0  0  0
  2  3  1  0  0  0  0
  2 17  1  0  0  0  0
  2 18  1  0  0  0  0
  3  4  1  0  0  0  0
  3  8  1  0  0  0  0
  3 13  1  0  0  0  0
  4  5  1  0  0  0  0
  4 11  1  0  0  0  0
  4 12  1  0  0  0  0
  5  6  1  0  0  0  0
  5  9  1  0  0  0  0
  5 19  1  0  0  0  0
  6  7  1  0  0  0  0
  6 20  1  0  0  0  0
  6 21  1  0  0  0  0
  7  8  1  0  0  0  0
  7 22  1  0  0  0  0
  7 23  1  0  0  0  0
  8  9  1  0  0  0  0
  8 10  1  0  0  0  0
  9 24  1  0  0  0  0
  9 25  1  0  0  0  0
 10 26  1  0  0  0  0
 10 27  1  0  0  0  0
 10 28  1  0  0  0  0
 11 29  1  0  0  0  0
 11 30  1  0  0  0  0
 11 31  1  0  0  0  0
 12 32  1  0  0  0  0
 12 33  1  0  0  0  0
 12 34  1  0  0  0  0
 13 35  1  0  0  0  0
M  END
$$$$
