
 OpenBabel07122215493D

 14 13  0  0  0  0  0  0  0  0999 V2000
    0.9255   -0.0116   -0.0025 C   0  0  0  0  0  0  0  0  0  0  0  0
    2.4399   -0.1071   -0.0416 C   0  0  0  0  0  0  0  0  0  0  0  0
    2.9142   -0.1736    1.2990 O   0  0  0  0  0  0  0  0  0  0  0  0
    2.9864   -1.2630   -0.9015 C   0  0  0  0  0  0  0  0  0  0  0  0
    2.0340   -2.2150   -1.5842 C   0  0  0  0  0  0  0  0  0  0  0  0
    4.2047   -1.4520   -1.0114 O   0  0  0  0  0  0  0  0  0  0  0  0
    0.5962    0.8295    0.6139 H   0  0  0  0  0  0  0  0  0  0  0  0
    0.4967   -0.9144    0.4476 H   0  0  0  0  0  0  0  0  0  0  0  0
    0.5132    0.1146   -1.0088 H   0  0  0  0  0  0  0  0  0  0  0  0
    2.8342    0.8192   -0.4768 H   0  0  0  0  0  0  0  0  0  0  0  0
    2.6606   -1.0364    1.6681 H   0  0  0  0  0  0  0  0  0  0  0  0
    0.9846   -1.9810   -1.4153 H   0  0  0  0  0  0  0  0  0  0  0  0
    2.2069   -3.2221   -1.1967 H   0  0  0  0  0  0  0  0  0  0  0  0
    2.2078   -2.1835   -2.6621 H   0  0  0  0  0  0  0  0  0  0  0  0
  1  2  1  0  0  0  0
  1  7  1  0  0  0  0
  1  8  1  0  0  0  0
  1  9  1  0  0  0  0
  2  3  1  0  0  0  0
  2  4  1  0  0  0  0
  2 10  1  0  0  0  0
  3 11  1  0  0  0  0
  4  5  1  0  0  0  0
  4  6  2  0  0  0  0
  5 12  1  0  0  0  0
  5 13  1  0  0  0  0
  5 14  1  0  0  0  0
M  END
$$$$
