
 OpenBabel07122215493D

 19 19  0  0  0  0  0  0  0  0999 V2000
    0.9292   -0.0480   -0.0477 C   0  0  0  0  0  0  0  0  0  0  0  0
    2.4505   -0.0574   -0.0665 C   0  0  0  0  0  0  0  0  0  0  0  0
    2.9739   -0.2128   -1.4714 C   0  0  0  0  0  0  0  0  0  0  0  0
    3.0815   -1.4822   -2.0577 C   0  0  0  0  0  0  0  0  0  0  0  0
    3.5114   -1.6196   -3.3805 C   0  0  0  0  0  0  0  0  0  0  0  0
    3.8321   -0.4821   -4.1154 C   0  0  0  0  0  0  0  0  0  0  0  0
    4.2409   -0.5605   -5.4142 O   0  0  0  0  0  0  0  0  0  0  0  0
    3.7385    0.7814   -3.5474 C   0  0  0  0  0  0  0  0  0  0  0  0
    3.3077    0.9185   -2.2280 C   0  0  0  0  0  0  0  0  0  0  0  0
    0.5607    0.0730    0.9753 H   0  0  0  0  0  0  0  0  0  0  0  0
    0.5220   -0.9829   -0.4477 H   0  0  0  0  0  0  0  0  0  0  0  0
    0.5321    0.7747   -0.6526 H   0  0  0  0  0  0  0  0  0  0  0  0
    2.8305   -0.8709    0.5630 H   0  0  0  0  0  0  0  0  0  0  0  0
    2.8308    0.8727    0.3734 H   0  0  0  0  0  0  0  0  0  0  0  0
    2.8191   -2.3708   -1.4871 H   0  0  0  0  0  0  0  0  0  0  0  0
    3.5822   -2.6112   -3.8148 H   0  0  0  0  0  0  0  0  0  0  0  0
    4.2321   -1.4916   -5.6873 H   0  0  0  0  0  0  0  0  0  0  0  0
    3.9923    1.6603   -4.1330 H   0  0  0  0  0  0  0  0  0  0  0  0
    3.2242    1.9133   -1.7978 H   0  0  0  0  0  0  0  0  0  0  0  0
  1  2  1  0  0  0  0
  1 10  1  0  0  0  0
  1 11  1  0  0  0  0
  1 12  1  0  0  0  0
  2  3  1  0  0  0  0
  2 13  1  0  0  0  0
  2 14  1  0  0  0  0
  3  4  1  0  0  0  0
  3  9  2  0  0  0  0
  4  5  2  0  0  0  0
  4 15  1  0  0  0  0
  5  6  1  0  0  0  0
  5 16  1  0  0  0  0
  6  7  1  0  0  0  0
  6  8  2  0  0  0  0
  7 17  1  0  0  0  0
  8  9  1  0  0  0  0
  8 18  1  0  0  0  0
  9 19  1  0  0  0  0
M  END
$$$$
