
 OpenBabel07202215583D

 34 34  0  0  0  0  0  0  0  0999 V2000
    0.8203    0.0658   -0.0153 C   0  0  0  0  0  0  0  0  0  0  0  0
    2.2955    0.0353   -0.0634 C   0  0  0  0  0  0  0  0  0  0  0  0
    2.9671   -0.8640   -0.7956 C   0  0  0  0  0  0  0  0  0  0  0  0
    4.4224   -0.9239   -0.5733 C   0  0  0  0  0  0  0  0  0  0  0  0
    4.8551   -0.2875    0.3981 O   0  0  0  0  0  0  0  0  0  0  0  0
    5.3282   -1.7802   -1.4888 C   0  0  0  0  0  0  0  0  0  0  0  0
    5.0226   -3.2563   -1.2245 C   0  0  0  0  0  0  0  0  0  0  0  0
    5.8160   -4.0181   -0.4469 C   0  0  0  0  0  0  0  0  0  0  0  0
    7.0637   -3.5105    0.2245 C   0  0  0  0  0  0  0  0  0  0  0  0
    7.2121   -1.9831    0.1781 C   0  0  0  0  0  0  0  0  0  0  0  0
    6.8278   -1.3924   -1.2058 C   0  0  0  0  0  0  0  0  0  0  0  0
    7.7848   -1.9532   -2.2832 C   0  0  0  0  0  0  0  0  0  0  0  0
    7.0345    0.1480   -1.2731 C   0  0  0  0  0  0  0  0  0  0  0  0
    3.7950   -3.8385   -1.8772 C   0  0  0  0  0  0  0  0  0  0  0  0
    0.4935    0.8672    0.6517 H   0  0  0  0  0  0  0  0  0  0  0  0
    0.4493   -0.8842    0.3810 H   0  0  0  0  0  0  0  0  0  0  0  0
    0.4170    0.2418   -1.0137 H   0  0  0  0  0  0  0  0  0  0  0  0
    2.8261    0.7348    0.5847 H   0  0  0  0  0  0  0  0  0  0  0  0
    2.4679   -1.5757   -1.4300 H   0  0  0  0  0  0  0  0  0  0  0  0
    5.1141   -1.5586   -2.5436 H   0  0  0  0  0  0  0  0  0  0  0  0
    5.5699   -5.0653   -0.2728 H   0  0  0  0  0  0  0  0  0  0  0  0
    7.9309   -3.9793   -0.2540 H   0  0  0  0  0  0  0  0  0  0  0  0
    7.0681   -3.8378    1.2704 H   0  0  0  0  0  0  0  0  0  0  0  0
    8.2271   -1.6903    0.4627 H   0  0  0  0  0  0  0  0  0  0  0  0
    6.5699   -1.5828    0.9697 H   0  0  0  0  0  0  0  0  0  0  0  0
    7.7725   -3.0428   -2.3544 H   0  0  0  0  0  0  0  0  0  0  0  0
    8.8163   -1.6525   -2.0561 H   0  0  0  0  0  0  0  0  0  0  0  0
    7.5387   -1.5554   -3.2736 H   0  0  0  0  0  0  0  0  0  0  0  0
    6.4947    0.7294   -0.5248 H   0  0  0  0  0  0  0  0  0  0  0  0
    6.7126    0.5300   -2.2501 H   0  0  0  0  0  0  0  0  0  0  0  0
    8.0851    0.4124   -1.1243 H   0  0  0  0  0  0  0  0  0  0  0  0
    3.3342   -3.1210   -2.5631 H   0  0  0  0  0  0  0  0  0  0  0  0
    3.0469   -4.1056   -1.1220 H   0  0  0  0  0  0  0  0  0  0  0  0
    4.0313   -4.7199   -2.4798 H   0  0  0  0  0  0  0  0  0  0  0  0
  1  2  1  0  0  0  0
  1 15  1  0  0  0  0
  1 16  1  0  0  0  0
  1 17  1  0  0  0  0
  2  3  2  0  0  0  0
  2 18  1  0  0  0  0
  3  4  1  0  0  0  0
  3 19  1  0  0  0  0
  4  5  2  0  0  0  0
  4  6  1  0  0  0  0
  6  7  1  0  0  0  0
  6 11  1  0  0  0  0
  6 20  1  0  0  0  0
  7  8  2  0  0  0  0
  7 14  1  0  0  0  0
  8  9  1  0  0  0  0
  8 21  1  0  0  0  0
  9 10  1  0  0  0  0
  9 22  1  0  0  0  0
  9 23  1  0  0  0  0
 10 11  1  0  0  0  0
 10 24  1  0  0  0  0
 10 25  1  0  0  0  0
 11 12  1  0  0  0  0
 11 13  1  0  0  0  0
 12 26  1  0  0  0  0
 12 27  1  0  0  0  0
 12 28  1  0  0  0  0
 13 29  1  0  0  0  0
 13 30  1  0  0  0  0
 13 31  1  0  0  0  0
 14 32  1  0  0  0  0
 14 33  1  0  0  0  0
 14 34  1  0  0  0  0
M  END
$$$$
