
 OpenBabel07202215583D

 30 29  0  0  0  0  0  0  0  0999 V2000
    1.0238   -0.0339   -0.0815 C   0  0  0  0  0  0  0  0  0  0  0  0
    2.5414   -0.0414   -0.0739 C   0  0  0  0  0  0  0  0  0  0  0  0
    3.0712   -1.0495    0.9391 C   0  0  0  0  0  0  0  0  0  0  0  0
    4.5945   -1.0591    0.9487 C   0  0  0  0  0  0  0  0  0  0  0  0
    5.1154   -2.0687    1.9634 C   0  0  0  0  0  0  0  0  0  0  0  0
    6.6386   -2.0789    1.9738 C   0  0  0  0  0  0  0  0  0  0  0  0
    7.1581   -3.0890    2.9888 C   0  0  0  0  0  0  0  0  0  0  0  0
    8.6805   -3.1064    3.0050 C   0  0  0  0  0  0  0  0  0  0  0  0
    9.1997   -4.1156    4.0163 C   0  0  0  0  0  0  0  0  0  0  0  0
   10.6201   -4.1075    4.0157 O   0  0  0  0  0  0  0  0  0  0  0  0
    0.6517    0.6915   -0.8103 H   0  0  0  0  0  0  0  0  0  0  0  0
    0.6317    0.2369    0.9041 H   0  0  0  0  0  0  0  0  0  0  0  0
    0.6317   -1.0207   -0.3475 H   0  0  0  0  0  0  0  0  0  0  0  0
    2.9108    0.9616    0.1697 H   0  0  0  0  0  0  0  0  0  0  0  0
    2.9108   -0.2898   -1.0758 H   0  0  0  0  0  0  0  0  0  0  0  0
    2.6982   -2.0519    0.6953 H   0  0  0  0  0  0  0  0  0  0  0  0
    2.6981   -0.8009    1.9403 H   0  0  0  0  0  0  0  0  0  0  0  0
    4.9712   -0.0589    1.1953 H   0  0  0  0  0  0  0  0  0  0  0  0
    4.9712   -1.3105   -0.0503 H   0  0  0  0  0  0  0  0  0  0  0  0
    4.7393   -3.0696    1.7177 H   0  0  0  0  0  0  0  0  0  0  0  0
    4.7392   -1.8183    2.9629 H   0  0  0  0  0  0  0  0  0  0  0  0
    7.0137   -1.0780    2.2196 H   0  0  0  0  0  0  0  0  0  0  0  0
    7.0137   -2.3296    0.9740 H   0  0  0  0  0  0  0  0  0  0  0  0
    6.7785   -4.0880    2.7415 H   0  0  0  0  0  0  0  0  0  0  0  0
    6.7791   -2.8369    3.9867 H   0  0  0  0  0  0  0  0  0  0  0  0
    9.0712   -2.1097    3.2455 H   0  0  0  0  0  0  0  0  0  0  0  0
    9.0678   -3.3485    2.0075 H   0  0  0  0  0  0  0  0  0  0  0  0
    8.8561   -5.1273    3.7775 H   0  0  0  0  0  0  0  0  0  0  0  0
    8.8563   -3.8653    5.0245 H   0  0  0  0  0  0  0  0  0  0  0  0
   10.9115   -4.3355    3.1189 H   0  0  0  0  0  0  0  0  0  0  0  0
  1  2  1  0  0  0  0
  1 11  1  0  0  0  0
  1 12  1  0  0  0  0
  1 13  1  0  0  0  0
  2  3  1  0  0  0  0
  2 14  1  0  0  0  0
  2 15  1  0  0  0  0
  3  4  1  0  0  0  0
  3 16  1  0  0  0  0
  3 17  1  0  0  0  0
  4  5  1  0  0  0  0
  4 18  1  0  0  0  0
  4 19  1  0  0  0  0
  5  6  1  0  0  0  0
  5 20  1  0  0  0  0
  5 21  1  0  0  0  0
  6  7  1  0  0  0  0
  6 22  1  0  0  0  0
  6 23  1  0  0  0  0
  7  8  1  0  0  0  0
  7 24  1  0  0  0  0
  7 25  1  0  0  0  0
  8  9  1  0  0  0  0
  8 26  1  0  0  0  0
  8 27  1  0  0  0  0
  9 10  1  0  0  0  0
  9 28  1  0  0  0  0
  9 29  1  0  0  0  0
 10 30  1  0  0  0  0
M  END
$$$$
