
 OpenBabel07222214433D

 22 21  0  0  0  0  0  0  0  0999 V2000
    1.0193   -0.0950   -0.0101 C   0  0  0  0  0  0  0  0  0  0  0  0
    2.5330   -0.0804   -0.0259 C   0  0  0  0  0  0  0  0  0  0  0  0
    3.0414    0.8959   -1.0825 C   0  0  0  0  0  0  0  0  0  0  0  0
    4.5570    0.8958   -1.0824 C   0  0  0  0  0  0  0  0  0  0  0  0
    5.1423    1.8464   -2.1111 C   0  0  0  0  0  0  0  0  0  0  0  0
    6.6595    1.8638   -2.1299 C   0  0  0  0  0  0  0  0  0  0  0  0
    7.4552    0.9923   -1.1868 C   0  0  0  0  0  0  0  0  0  0  0  0
    7.2520    2.6008   -2.9276 O   0  0  0  0  0  0  0  0  0  0  0  0
    0.6534   -0.7940    0.7463 H   0  0  0  0  0  0  0  0  0  0  0  0
    0.6290   -0.4024   -0.9853 H   0  0  0  0  0  0  0  0  0  0  0  0
    0.6290    0.9013    0.2194 H   0  0  0  0  0  0  0  0  0  0  0  0
    2.9100   -1.0896   -0.2332 H   0  0  0  0  0  0  0  0  0  0  0  0
    2.9100    0.2057    0.9638 H   0  0  0  0  0  0  0  0  0  0  0  0
    2.6704    1.9055   -0.8713 H   0  0  0  0  0  0  0  0  0  0  0  0
    2.6704    0.6058   -2.0723 H   0  0  0  0  0  0  0  0  0  0  0  0
    4.9076   -0.1237   -1.2863 H   0  0  0  0  0  0  0  0  0  0  0  0
    4.9076    1.1794   -0.0821 H   0  0  0  0  0  0  0  0  0  0  0  0
    4.7985    2.8680   -1.9088 H   0  0  0  0  0  0  0  0  0  0  0  0
    4.7985    1.5641   -3.1136 H   0  0  0  0  0  0  0  0  0  0  0  0
    6.8439    0.3807   -0.5250 H   0  0  0  0  0  0  0  0  0  0  0  0
    8.0739    1.6297   -0.5517 H   0  0  0  0  0  0  0  0  0  0  0  0
    8.0739    0.3089   -1.7722 H   0  0  0  0  0  0  0  0  0  0  0  0
  1  2  1  0  0  0  0
  1  9  1  0  0  0  0
  1 10  1  0  0  0  0
  1 11  1  0  0  0  0
  2  3  1  0  0  0  0
  2 12  1  0  0  0  0
  2 13  1  0  0  0  0
  3  4  1  0  0  0  0
  3 14  1  0  0  0  0
  3 15  1  0  0  0  0
  4  5  1  0  0  0  0
  4 16  1  0  0  0  0
  4 17  1  0  0  0  0
  5  6  1  0  0  0  0
  5 18  1  0  0  0  0
  5 19  1  0  0  0  0
  6  7  1  0  0  0  0
  6  8  2  0  0  0  0
  7 20  1  0  0  0  0
  7 21  1  0  0  0  0
  7 22  1  0  0  0  0
M  END
$$$$
