
 OpenBabel07222214433D

 29 28  0  0  0  0  0  0  0  0999 V2000
    1.0187   -0.0291   -0.0756 C   0  0  0  0  0  0  0  0  0  0  0  0
    2.5346   -0.0355   -0.0780 C   0  0  0  0  0  0  0  0  0  0  0  0
    3.0588   -1.3754   -0.5740 C   0  0  0  0  0  0  0  0  0  0  0  0
    4.5793   -1.3822   -0.5765 C   0  0  0  0  0  0  0  0  0  0  0  0
    5.0964   -2.7213   -1.0723 C   0  0  0  0  0  0  0  0  0  0  0  0
    6.6182   -2.7306   -1.0757 C   0  0  0  0  0  0  0  0  0  0  0  0
    7.1114   -4.0780   -1.5746 C   0  0  0  0  0  0  0  0  0  0  0  0
    8.6280   -4.1494   -1.6010 C   0  0  0  0  0  0  0  0  0  0  0  0
    9.2014   -5.4610   -2.0866 C   0  0  0  0  0  0  0  0  0  0  0  0
    8.3298   -6.4240   -2.4431 O   0  0  0  0  0  0  0  0  0  0  0  0
   10.4109   -5.6491   -2.1562 O   0  0  0  0  0  0  0  0  0  0  0  0
    0.6447    0.9341    0.2810 H   0  0  0  0  0  0  0  0  0  0  0  0
    0.6300   -0.8154    0.5793 H   0  0  0  0  0  0  0  0  0  0  0  0
    0.6300   -0.1994   -1.0846 H   0  0  0  0  0  0  0  0  0  0  0  0
    2.9056    0.1580    0.9353 H   0  0  0  0  0  0  0  0  0  0  0  0
    2.9056    0.7712   -0.7209 H   0  0  0  0  0  0  0  0  0  0  0  0
    2.6863   -1.5706   -1.5874 H   0  0  0  0  0  0  0  0  0  0  0  0
    2.6863   -2.1834    0.0680 H   0  0  0  0  0  0  0  0  0  0  0  0
    4.9555   -1.1922    0.4359 H   0  0  0  0  0  0  0  0  0  0  0  0
    4.9555   -0.5787   -1.2211 H   0  0  0  0  0  0  0  0  0  0  0  0
    4.7201   -2.9149   -2.0848 H   0  0  0  0  0  0  0  0  0  0  0  0
    4.7201   -3.5275   -0.4299 H   0  0  0  0  0  0  0  0  0  0  0  0
    6.9952   -2.5422   -0.0634 H   0  0  0  0  0  0  0  0  0  0  0  0
    6.9952   -1.9284   -1.7214 H   0  0  0  0  0  0  0  0  0  0  0  0
    6.7161   -4.2524   -2.5830 H   0  0  0  0  0  0  0  0  0  0  0  0
    6.7161   -4.8670   -0.9228 H   0  0  0  0  0  0  0  0  0  0  0  0
    9.0144   -3.9743   -0.5895 H   0  0  0  0  0  0  0  0  0  0  0  0
    9.0144   -3.3579   -2.2546 H   0  0  0  0  0  0  0  0  0  0  0  0
    7.3798   -6.2254   -2.3696 H   0  0  0  0  0  0  0  0  0  0  0  0
  1  2  1  0  0  0  0
  1 12  1  0  0  0  0
  1 13  1  0  0  0  0
  1 14  1  0  0  0  0
  2  3  1  0  0  0  0
  2 15  1  0  0  0  0
  2 16  1  0  0  0  0
  3  4  1  0  0  0  0
  3 17  1  0  0  0  0
  3 18  1  0  0  0  0
  4  5  1  0  0  0  0
  4 19  1  0  0  0  0
  4 20  1  0  0  0  0
  5  6  1  0  0  0  0
  5 21  1  0  0  0  0
  5 22  1  0  0  0  0
  6  7  1  0  0  0  0
  6 23  1  0  0  0  0
  6 24  1  0  0  0  0
  7  8  1  0  0  0  0
  7 25  1  0  0  0  0
  7 26  1  0  0  0  0
  8  9  1  0  0  0  0
  8 27  1  0  0  0  0
  8 28  1  0  0  0  0
  9 10  1  0  0  0  0
  9 11  2  0  0  0  0
 10 29  1  0  0  0  0
M  END
$$$$
