
 OpenBabel07222214443D

 29 29  0  0  1  0  0  0  0  0999 V2000
    1.0155   -0.0252    0.0591 C   0  0  0  0  0  0  0  0  0  0  0  0
    2.5493   -0.0307   -0.0080 C   0  0  2  0  0  0  0  0  0  0  0  0
    3.0593    0.9830   -1.0424 C   0  0  0  0  0  0  0  0  0  0  0  0
    2.6946    0.5447   -2.4558 C   0  0  0  0  0  0  0  0  0  0  0  0
    3.2126   -0.7625   -2.7038 O   0  0  0  0  0  0  0  0  0  0  0  0
    2.6725   -1.7481   -1.8136 C   0  0  2  0  0  0  0  0  0  0  0  0
    3.0781   -1.4203   -0.3807 C   0  0  0  0  0  0  0  0  0  0  0  0
    3.1457   -3.1036   -2.2334 C   0  0  0  0  0  0  0  0  0  0  0  0
    2.8467   -3.6607   -3.4270 C   0  0  0  0  0  0  0  0  0  0  0  0
    2.0424   -2.9426   -4.4765 C   0  0  0  0  0  0  0  0  0  0  0  0
    3.3177   -5.0404   -3.7717 C   0  0  0  0  0  0  0  0  0  0  0  0
    0.6479    0.9567    0.3671 H   0  0  0  0  0  0  0  0  0  0  0  0
    0.6560   -0.7774    0.7674 H   0  0  0  0  0  0  0  0  0  0  0  0
    0.5428   -0.2463   -0.9032 H   0  0  0  0  0  0  0  0  0  0  0  0
    2.9377    0.2366    0.9813 H   0  0  0  0  0  0  0  0  0  0  0  0
    4.1542    1.0317   -0.9704 H   0  0  0  0  0  0  0  0  0  0  0  0
    2.6720    1.9848   -0.8322 H   0  0  0  0  0  0  0  0  0  0  0  0
    3.1309    1.2296   -3.1895 H   0  0  0  0  0  0  0  0  0  0  0  0
    1.6112    0.5554   -2.6246 H   0  0  0  0  0  0  0  0  0  0  0  0
    1.5790   -1.7609   -1.8962 H   0  0  0  0  0  0  0  0  0  0  0  0
    4.1748   -1.4157   -0.3048 H   0  0  0  0  0  0  0  0  0  0  0  0
    2.7067   -2.1792    0.3175 H   0  0  0  0  0  0  0  0  0  0  0  0
    3.7155   -3.6745   -1.5059 H   0  0  0  0  0  0  0  0  0  0  0  0
    1.6824   -1.9600   -4.1585 H   0  0  0  0  0  0  0  0  0  0  0  0
    1.1504   -3.5189   -4.7352 H   0  0  0  0  0  0  0  0  0  0  0  0
    2.6502   -2.7811   -5.3709 H   0  0  0  0  0  0  0  0  0  0  0  0
    3.8750   -5.5032   -2.9494 H   0  0  0  0  0  0  0  0  0  0  0  0
    3.9779   -5.0066   -4.6434 H   0  0  0  0  0  0  0  0  0  0  0  0
    2.4643   -5.6878   -3.9966 H   0  0  0  0  0  0  0  0  0  0  0  0
  1  2  1  0  0  0  0
  1 12  1  0  0  0  0
  1 13  1  0  0  0  0
  1 14  1  0  0  0  0
  2  3  1  0  0  0  0
  2  7  1  0  0  0  0
  2 15  1  1  0  0  0
  3  4  1  0  0  0  0
  3 16  1  0  0  0  0
  3 17  1  0  0  0  0
  4  5  1  0  0  0  0
  4 18  1  0  0  0  0
  4 19  1  0  0  0  0
  5  6  1  0  0  0  0
  6  7  1  0  0  0  0
  6  8  1  0  0  0  0
  6 20  1  6  0  0  0
  7 21  1  0  0  0  0
  7 22  1  0  0  0  0
  8  9  2  0  0  0  0
  8 23  1  0  0  0  0
  9 10  1  0  0  0  0
  9 11  1  0  0  0  0
 10 24  1  0  0  0  0
 10 25  1  0  0  0  0
 10 26  1  0  0  0  0
 11 27  1  0  0  0  0
 11 28  1  0  0  0  0
 11 29  1  0  0  0  0
M  END
$$$$
