
 OpenBabel07222214433D

 47 47  0  0  0  0  0  0  0  0999 V2000
    1.0157    0.0097   -0.1402 C   0  0  0  0  0  0  0  0  0  0  0  0
    2.5488    0.0131    0.0017 C   0  0  0  0  0  0  0  0  0  0  0  0
    3.0932    1.1607    0.8933 C   0  0  0  0  0  0  0  0  0  0  0  0
    1.9962    2.1451    1.2637 C   0  0  0  0  0  0  0  0  0  0  0  0
    2.4735    3.4080    1.9462 C   0  0  0  0  0  0  0  0  0  0  0  0
    2.3942    3.3757    3.4691 C   0  0  0  0  0  0  0  0  0  0  0  0
    1.2663    2.5048    4.0402 C   0  0  0  0  0  0  0  0  0  0  0  0
    1.2955    2.4949    5.5604 C   0  0  0  0  0  0  0  0  0  0  0  0
    0.5951    1.2689    6.1715 C   0  0  0  0  0  0  0  0  0  0  0  0
    1.4298   -0.0056    5.9620 C   0  0  0  0  0  0  0  0  0  0  0  0
    0.6729   -1.2406    5.4757 C   0  0  0  0  0  0  0  0  0  0  0  0
    1.6839   -2.3504    5.1222 C   0  0  0  0  0  0  0  0  0  0  0  0
    1.4863   -2.8609    3.6969 C   0  0  0  0  0  0  0  0  0  0  0  0
    2.5524   -2.2522    2.7943 C   0  0  0  0  0  0  0  0  0  0  0  0
    2.1122   -2.0954    1.3722 C   0  0  0  0  0  0  0  0  0  0  0  0
    1.0311   -2.5393    0.9661 O   0  0  0  0  0  0  0  0  0  0  0  0
    3.0754   -1.3551    0.4621 C   0  0  0  0  0  0  0  0  0  0  0  0
    0.6342    0.9229   -0.6019 H   0  0  0  0  0  0  0  0  0  0  0  0
    0.5334   -0.0853    0.8420 H   0  0  0  0  0  0  0  0  0  0  0  0
    0.6761   -0.8142   -0.7694 H   0  0  0  0  0  0  0  0  0  0  0  0
    2.9656    0.1915   -0.9988 H   0  0  0  0  0  0  0  0  0  0  0  0
    3.8886    1.6877    0.3490 H   0  0  0  0  0  0  0  0  0  0  0  0
    3.5662    0.7756    1.8069 H   0  0  0  0  0  0  0  0  0  0  0  0
    1.2660    1.6004    1.8582 H   0  0  0  0  0  0  0  0  0  0  0  0
    1.4475    2.4692    0.3787 H   0  0  0  0  0  0  0  0  0  0  0  0
    1.8387    4.2268    1.5857 H   0  0  0  0  0  0  0  0  0  0  0  0
    3.4929    3.6568    1.6266 H   0  0  0  0  0  0  0  0  0  0  0  0
    2.2807    4.4077    3.8234 H   0  0  0  0  0  0  0  0  0  0  0  0
    3.3551    3.0146    3.8525 H   0  0  0  0  0  0  0  0  0  0  0  0
    1.3973    1.4696    3.7181 H   0  0  0  0  0  0  0  0  0  0  0  0
    0.2920    2.8444    3.6635 H   0  0  0  0  0  0  0  0  0  0  0  0
    0.8442    3.4219    5.9256 H   0  0  0  0  0  0  0  0  0  0  0  0
    2.3412    2.4846    5.8877 H   0  0  0  0  0  0  0  0  0  0  0  0
   -0.4309    1.1694    5.7988 H   0  0  0  0  0  0  0  0  0  0  0  0
    0.5278    1.4517    7.2504 H   0  0  0  0  0  0  0  0  0  0  0  0
    1.9269   -0.2581    6.9052 H   0  0  0  0  0  0  0  0  0  0  0  0
    2.2290    0.1933    5.2401 H   0  0  0  0  0  0  0  0  0  0  0  0
    0.0523   -0.9732    4.6119 H   0  0  0  0  0  0  0  0  0  0  0  0
   -0.0058   -1.6145    6.2512 H   0  0  0  0  0  0  0  0  0  0  0  0
    1.5892   -3.1823    5.8270 H   0  0  0  0  0  0  0  0  0  0  0  0
    2.7157   -1.9901    5.2408 H   0  0  0  0  0  0  0  0  0  0  0  0
    0.4700   -2.6475    3.3449 H   0  0  0  0  0  0  0  0  0  0  0  0
    1.5882   -3.9524    3.6702 H   0  0  0  0  0  0  0  0  0  0  0  0
    3.4414   -2.8914    2.7866 H   0  0  0  0  0  0  0  0  0  0  0  0
    2.8354   -1.2532    3.1445 H   0  0  0  0  0  0  0  0  0  0  0  0
    3.2654   -2.0085   -0.3953 H   0  0  0  0  0  0  0  0  0  0  0  0
    4.0394   -1.2514    0.9776 H   0  0  0  0  0  0  0  0  0  0  0  0
  1  2  1  0  0  0  0
  1 18  1  0  0  0  0
  1 19  1  0  0  0  0
  1 20  1  0  0  0  0
  2  3  1  0  0  0  0
  2 17  1  0  0  0  0
  2 21  1  0  0  0  0
  3  4  1  0  0  0  0
  3 22  1  0  0  0  0
  3 23  1  0  0  0  0
  4  5  1  0  0  0  0
  4 24  1  0  0  0  0
  4 25  1  0  0  0  0
  5  6  1  0  0  0  0
  5 26  1  0  0  0  0
  5 27  1  0  0  0  0
  6  7  1  0  0  0  0
  6 28  1  0  0  0  0
  6 29  1  0  0  0  0
  7  8  1  0  0  0  0
  7 30  1  0  0  0  0
  7 31  1  0  0  0  0
  8  9  1  0  0  0  0
  8 32  1  0  0  0  0
  8 33  1  0  0  0  0
  9 10  1  0  0  0  0
  9 34  1  0  0  0  0
  9 35  1  0  0  0  0
 10 11  1  0  0  0  0
 10 36  1  0  0  0  0
 10 37  1  0  0  0  0
 11 12  1  0  0  0  0
 11 38  1  0  0  0  0
 11 39  1  0  0  0  0
 12 13  1  0  0  0  0
 12 40  1  0  0  0  0
 12 41  1  0  0  0  0
 13 14  1  0  0  0  0
 13 42  1  0  0  0  0
 13 43  1  0  0  0  0
 14 15  1  0  0  0  0
 14 44  1  0  0  0  0
 14 45  1  0  0  0  0
 15 16  2  0  0  0  0
 15 17  1  0  0  0  0
 17 46  1  0  0  0  0
 17 47  1  0  0  0  0
M  END
$$$$
