
 OpenBabel07202215583D

 39 38  0  0  0  0  0  0  0  0999 V2000
    0.8743   -0.0621    0.0011 C   0  0  0  0  0  0  0  0  0  0  0  0
    2.3915   -0.0538    0.0069 C   0  0  0  0  0  0  0  0  0  0  0  0
    2.9198    1.1146    0.8294 C   0  0  0  0  0  0  0  0  0  0  0  0
    4.4419    1.1248    0.8366 C   0  0  0  0  0  0  0  0  0  0  0  0
    4.9589    2.2950    1.6604 C   0  0  0  0  0  0  0  0  0  0  0  0
    6.4793    2.3046    1.6672 C   0  0  0  0  0  0  0  0  0  0  0  0
    6.9942    3.4744    2.4907 C   0  0  0  0  0  0  0  0  0  0  0  0
    8.5146    3.4838    2.4974 C   0  0  0  0  0  0  0  0  0  0  0  0
    9.0319    4.6537    3.3212 C   0  0  0  0  0  0  0  0  0  0  0  0
   10.5539    4.6631    3.3278 C   0  0  0  0  0  0  0  0  0  0  0  0
   11.0823    5.8304    4.1485 C   0  0  0  0  0  0  0  0  0  0  0  0
   12.6019    5.8419    4.1542 C   0  0  0  0  0  0  0  0  0  0  0  0
   13.0694    6.9360    4.9301 O   0  0  0  0  0  0  0  0  0  0  0  0
    0.5021   -0.9028   -0.5907 H   0  0  0  0  0  0  0  0  0  0  0  0
    0.4827    0.8640   -0.4319 H   0  0  0  0  0  0  0  0  0  0  0  0
    0.4827   -0.1573    1.0190 H   0  0  0  0  0  0  0  0  0  0  0  0
    2.7614    0.0173   -1.0226 H   0  0  0  0  0  0  0  0  0  0  0  0
    2.7614   -0.9990    0.4212 H   0  0  0  0  0  0  0  0  0  0  0  0
    2.5474    1.0438    1.8589 H   0  0  0  0  0  0  0  0  0  0  0  0
    2.5474    2.0598    0.4156 H   0  0  0  0  0  0  0  0  0  0  0  0
    4.8197    1.1997   -0.1904 H   0  0  0  0  0  0  0  0  0  0  0  0
    4.8197    0.1832    1.2535 H   0  0  0  0  0  0  0  0  0  0  0  0
    4.5837    2.2221    2.6887 H   0  0  0  0  0  0  0  0  0  0  0  0
    4.5837    3.2384    1.2449 H   0  0  0  0  0  0  0  0  0  0  0  0
    6.8559    2.3787    0.6396 H   0  0  0  0  0  0  0  0  0  0  0  0
    6.8559    1.3622    2.0835 H   0  0  0  0  0  0  0  0  0  0  0  0
    6.6176    3.4004    3.5183 H   0  0  0  0  0  0  0  0  0  0  0  0
    6.6177    4.4168    2.0744 H   0  0  0  0  0  0  0  0  0  0  0  0
    8.8897    3.5567    1.4691 H   0  0  0  0  0  0  0  0  0  0  0  0
    8.8896    2.5403    2.9128 H   0  0  0  0  0  0  0  0  0  0  0  0
    8.6543    4.5791    4.3483 H   0  0  0  0  0  0  0  0  0  0  0  0
    8.6543    5.5955    2.9043 H   0  0  0  0  0  0  0  0  0  0  0  0
   10.9259    4.7338    2.2983 H   0  0  0  0  0  0  0  0  0  0  0  0
   10.9261    3.7181    3.7421 H   0  0  0  0  0  0  0  0  0  0  0  0
   10.7099    5.7722    5.1789 H   0  0  0  0  0  0  0  0  0  0  0  0
   10.7053    6.7788    3.7456 H   0  0  0  0  0  0  0  0  0  0  0  0
   13.0002    5.9382    3.1389 H   0  0  0  0  0  0  0  0  0  0  0  0
   12.9944    4.9190    4.5911 H   0  0  0  0  0  0  0  0  0  0  0  0
   12.7179    7.7465    4.5304 H   0  0  0  0  0  0  0  0  0  0  0  0
  1  2  1  0  0  0  0
  1 14  1  0  0  0  0
  1 15  1  0  0  0  0
  1 16  1  0  0  0  0
  2  3  1  0  0  0  0
  2 17  1  0  0  0  0
  2 18  1  0  0  0  0
  3  4  1  0  0  0  0
  3 19  1  0  0  0  0
  3 20  1  0  0  0  0
  4  5  1  0  0  0  0
  4 21  1  0  0  0  0
  4 22  1  0  0  0  0
  5  6  1  0  0  0  0
  5 23  1  0  0  0  0
  5 24  1  0  0  0  0
  6  7  1  0  0  0  0
  6 25  1  0  0  0  0
  6 26  1  0  0  0  0
  7  8  1  0  0  0  0
  7 27  1  0  0  0  0
  7 28  1  0  0  0  0
  8  9  1  0  0  0  0
  8 29  1  0  0  0  0
  8 30  1  0  0  0  0
  9 10  1  0  0  0  0
  9 31  1  0  0  0  0
  9 32  1  0  0  0  0
 10 11  1  0  0  0  0
 10 33  1  0  0  0  0
 10 34  1  0  0  0  0
 11 12  1  0  0  0  0
 11 35  1  0  0  0  0
 11 36  1  0  0  0  0
 12 13  1  0  0  0  0
 12 37  1  0  0  0  0
 12 38  1  0  0  0  0
 13 39  1  0  0  0  0
M  END
$$$$
