
 OpenBabel07222214433D

 31 30  0  0  0  0  0  0  0  0999 V2000
    0.9507   -0.0152   -0.0982 O   0  0  0  0  0  0  0  0  0  0  0  0
    2.3690   -0.0205   -0.0754 C   0  0  0  0  0  0  0  0  0  0  0  0
    2.8836    0.3027   -1.4663 C   0  0  0  0  0  0  0  0  0  0  0  0
    4.4046    0.3076   -1.4872 C   0  0  0  0  0  0  0  0  0  0  0  0
    4.9217    0.6315   -2.8809 C   0  0  0  0  0  0  0  0  0  0  0  0
    6.4431    0.6338   -2.8908 C   0  0  0  0  0  0  0  0  0  0  0  0
    6.9626    0.9574   -4.2833 C   0  0  0  0  0  0  0  0  0  0  0  0
    8.4852    0.9593   -4.2918 C   0  0  0  0  0  0  0  0  0  0  0  0
    9.0089    1.2834   -5.6863 C   0  0  0  0  0  0  0  0  0  0  0  0
   10.5063    1.2907   -5.7179 C   0  0  0  0  0  0  0  0  0  0  0  0
   11.1954    1.5506   -6.8363 C   0  0  0  0  0  0  0  0  0  0  0  0
    0.6542   -0.2247    0.8035 H   0  0  0  0  0  0  0  0  0  0  0  0
    2.7128   -1.0096    0.2439 H   0  0  0  0  0  0  0  0  0  0  0  0
    2.7128    0.7265    0.6473 H   0  0  0  0  0  0  0  0  0  0  0  0
    2.4945    1.2768   -1.7884 H   0  0  0  0  0  0  0  0  0  0  0  0
    2.4945   -0.4295   -2.1849 H   0  0  0  0  0  0  0  0  0  0  0  0
    4.7843   -0.6719   -1.1713 H   0  0  0  0  0  0  0  0  0  0  0  0
    4.7843    1.0475   -0.7718 H   0  0  0  0  0  0  0  0  0  0  0  0
    4.5470    1.6120   -3.1992 H   0  0  0  0  0  0  0  0  0  0  0  0
    4.5470   -0.1083   -3.5990 H   0  0  0  0  0  0  0  0  0  0  0  0
    6.8187   -0.3465   -2.5725 H   0  0  0  0  0  0  0  0  0  0  0  0
    6.8187    1.3733   -2.1728 H   0  0  0  0  0  0  0  0  0  0  0  0
    6.5864    1.9376   -4.6010 H   0  0  0  0  0  0  0  0  0  0  0  0
    6.5864    0.2176   -5.0006 H   0  0  0  0  0  0  0  0  0  0  0  0
    8.8562   -0.0219   -3.9690 H   0  0  0  0  0  0  0  0  0  0  0  0
    8.8562    1.6977   -3.5694 H   0  0  0  0  0  0  0  0  0  0  0  0
    8.6308    2.2658   -5.9949 H   0  0  0  0  0  0  0  0  0  0  0  0
    8.6308    0.5377   -6.3965 H   0  0  0  0  0  0  0  0  0  0  0  0
   11.0470    1.0771   -4.7988 H   0  0  0  0  0  0  0  0  0  0  0  0
   10.6868    1.7676   -7.7701 H   0  0  0  0  0  0  0  0  0  0  0  0
   12.2794    1.5500   -6.8338 H   0  0  0  0  0  0  0  0  0  0  0  0
  1  2  1  0  0  0  0
  1 12  1  0  0  0  0
  2  3  1  0  0  0  0
  2 13  1  0  0  0  0
  2 14  1  0  0  0  0
  3  4  1  0  0  0  0
  3 15  1  0  0  0  0
  3 16  1  0  0  0  0
  4  5  1  0  0  0  0
  4 17  1  0  0  0  0
  4 18  1  0  0  0  0
  5  6  1  0  0  0  0
  5 19  1  0  0  0  0
  5 20  1  0  0  0  0
  6  7  1  0  0  0  0
  6 21  1  0  0  0  0
  6 22  1  0  0  0  0
  7  8  1  0  0  0  0
  7 23  1  0  0  0  0
  7 24  1  0  0  0  0
  8  9  1  0  0  0  0
  8 25  1  0  0  0  0
  8 26  1  0  0  0  0
  9 10  1  0  0  0  0
  9 27  1  0  0  0  0
  9 28  1  0  0  0  0
 10 11  2  0  0  0  0
 10 29  1  0  0  0  0
 11 30  1  0  0  0  0
 11 31  1  0  0  0  0
M  END
$$$$
