
 OpenBabel07222214433D

 20 19  0  0  0  0  0  0  0  0999 V2000
    0.9436    0.0219   -0.0931 C   0  0  0  0  0  0  0  0  0  0  0  0
    2.4629    0.0205   -0.1023 C   0  0  0  0  0  0  0  0  0  0  0  0
    3.0481   -0.1917   -1.5035 C   0  0  0  0  0  0  0  0  0  0  0  0
    4.5646   -0.1840   -1.4523 C   0  0  0  0  0  0  0  0  0  0  0  0
    5.2205   -0.0289   -0.4282 O   0  0  0  0  0  0  0  0  0  0  0  0
    5.1099   -0.3717   -2.6913 O   0  0  0  0  0  0  0  0  0  0  0  0
    6.5498   -0.3710   -2.6872 C   0  0  0  0  0  0  0  0  0  0  0  0
    7.0757   -0.5845   -4.0961 C   0  0  0  0  0  0  0  0  0  0  0  0
    0.5734    0.1763    0.9264 H   0  0  0  0  0  0  0  0  0  0  0  0
    0.5471   -0.9316   -0.4549 H   0  0  0  0  0  0  0  0  0  0  0  0
    0.5471    0.8254   -0.7211 H   0  0  0  0  0  0  0  0  0  0  0  0
    2.8218   -0.7671    0.5718 H   0  0  0  0  0  0  0  0  0  0  0  0
    2.8218    0.9724    0.3084 H   0  0  0  0  0  0  0  0  0  0  0  0
    2.7083    0.6098   -2.1688 H   0  0  0  0  0  0  0  0  0  0  0  0
    2.7083   -1.1543   -1.9016 H   0  0  0  0  0  0  0  0  0  0  0  0
    6.9162   -1.1780   -2.0417 H   0  0  0  0  0  0  0  0  0  0  0  0
    6.9162    0.5909   -2.3097 H   0  0  0  0  0  0  0  0  0  0  0  0
    6.7245   -1.5375   -4.5038 H   0  0  0  0  0  0  0  0  0  0  0  0
    8.1711   -0.5858   -4.1049 H   0  0  0  0  0  0  0  0  0  0  0  0
    6.7245    0.2051   -4.7678 H   0  0  0  0  0  0  0  0  0  0  0  0
  1  2  1  0  0  0  0
  1  9  1  0  0  0  0
  1 10  1  0  0  0  0
  1 11  1  0  0  0  0
  2  3  1  0  0  0  0
  2 12  1  0  0  0  0
  2 13  1  0  0  0  0
  3  4  1  0  0  0  0
  3 14  1  0  0  0  0
  3 15  1  0  0  0  0
  4  5  2  0  0  0  0
  4  6  1  0  0  0  0
  6  7  1  0  0  0  0
  7  8  1  0  0  0  0
  7 16  1  0  0  0  0
  7 17  1  0  0  0  0
  8 18  1  0  0  0  0
  8 19  1  0  0  0  0
  8 20  1  0  0  0  0
M  END
$$$$
