
 OpenBabel07222214433D

 26 25  0  0  0  0  0  0  0  0999 V2000
    0.9466   -0.0527   -0.0998 C   0  0  0  0  0  0  0  0  0  0  0  0
    2.4642   -0.0504   -0.1002 C   0  0  0  0  0  0  0  0  0  0  0  0
    3.0222   -0.8372    1.0881 C   0  0  0  0  0  0  0  0  0  0  0  0
    4.5650   -0.8502    1.1533 C   0  0  0  0  0  0  0  0  0  0  0  0
    5.1078    0.5754    1.2405 C   0  0  0  0  0  0  0  0  0  0  0  0
    5.0215   -1.6790    2.3558 C   0  0  0  0  0  0  0  0  0  0  0  0
    4.2588   -2.2357    3.1397 O   0  0  0  0  0  0  0  0  0  0  0  0
    6.3839   -1.7520    2.4390 O   0  0  0  0  0  0  0  0  0  0  0  0
    6.8562   -2.5135    3.5658 C   0  0  0  0  0  0  0  0  0  0  0  0
    8.3752   -2.5224    3.5822 C   0  0  0  0  0  0  0  0  0  0  0  0
    0.5714    0.5273   -0.9484 H   0  0  0  0  0  0  0  0  0  0  0  0
    0.5619    0.4031    0.8185 H   0  0  0  0  0  0  0  0  0  0  0  0
    0.5554   -1.0709   -0.1740 H   0  0  0  0  0  0  0  0  0  0  0  0
    2.7850    0.9948   -0.0620 H   0  0  0  0  0  0  0  0  0  0  0  0
    2.8384   -0.4756   -1.0381 H   0  0  0  0  0  0  0  0  0  0  0  0
    2.6519   -1.8700    1.0374 H   0  0  0  0  0  0  0  0  0  0  0  0
    2.6222   -0.4144    2.0196 H   0  0  0  0  0  0  0  0  0  0  0  0
    4.9451   -1.3397    0.2474 H   0  0  0  0  0  0  0  0  0  0  0  0
    4.7366    1.0748    2.1420 H   0  0  0  0  0  0  0  0  0  0  0  0
    4.8100    1.1767    0.3759 H   0  0  0  0  0  0  0  0  0  0  0  0
    6.2002    0.5906    1.2661 H   0  0  0  0  0  0  0  0  0  0  0  0
    6.4909   -3.5445    3.4940 H   0  0  0  0  0  0  0  0  0  0  0  0
    6.4901   -2.0611    4.4950 H   0  0  0  0  0  0  0  0  0  0  0  0
    8.7727   -2.9636    2.6627 H   0  0  0  0  0  0  0  0  0  0  0  0
    8.7509   -3.0985    4.4347 H   0  0  0  0  0  0  0  0  0  0  0  0
    8.7709   -1.5041    3.6500 H   0  0  0  0  0  0  0  0  0  0  0  0
  1  2  1  0  0  0  0
  1 11  1  0  0  0  0
  1 12  1  0  0  0  0
  1 13  1  0  0  0  0
  2  3  1  0  0  0  0
  2 14  1  0  0  0  0
  2 15  1  0  0  0  0
  3  4  1  0  0  0  0
  3 16  1  0  0  0  0
  3 17  1  0  0  0  0
  4  5  1  0  0  0  0
  4  6  1  0  0  0  0
  4 18  1  0  0  0  0
  5 19  1  0  0  0  0
  5 20  1  0  0  0  0
  5 21  1  0  0  0  0
  6  7  2  0  0  0  0
  6  8  1  0  0  0  0
  8  9  1  0  0  0  0
  9 10  1  0  0  0  0
  9 22  1  0  0  0  0
  9 23  1  0  0  0  0
 10 24  1  0  0  0  0
 10 25  1  0  0  0  0
 10 26  1  0  0  0  0
M  END
$$$$
