
 OpenBabel07222214433D

 23 22  0  0  0  0  0  0  0  0999 V2000
    0.9198    0.0737   -0.0351 C   0  0  0  0  0  0  0  0  0  0  0  0
    2.4369    0.0729   -0.0199 C   0  0  0  0  0  0  0  0  0  0  0  0
    2.9608   -0.0070    1.4119 C   0  0  0  0  0  0  0  0  0  0  0  0
    4.4827   -0.0077    1.4254 C   0  0  0  0  0  0  0  0  0  0  0  0
    5.0404   -0.0869    2.8451 C   0  0  0  0  0  0  0  0  0  0  0  0
    6.5570   -0.0852    2.8130 C   0  0  0  0  0  0  0  0  0  0  0  0
    7.1965   -0.0266    1.7627 O   0  0  0  0  0  0  0  0  0  0  0  0
    7.2604   -0.1583    4.1247 C   0  0  0  0  0  0  0  0  0  0  0  0
    8.5991   -0.1601    4.1569 C   0  0  0  0  0  0  0  0  0  0  0  0
    0.5489    0.1310   -1.0623 H   0  0  0  0  0  0  0  0  0  0  0  0
    0.5280    0.9313    0.5209 H   0  0  0  0  0  0  0  0  0  0  0  0
    0.5280   -0.8404    0.4220 H   0  0  0  0  0  0  0  0  0  0  0  0
    2.8077    0.9837   -0.5050 H   0  0  0  0  0  0  0  0  0  0  0  0
    2.8078   -0.7784   -0.6033 H   0  0  0  0  0  0  0  0  0  0  0  0
    2.5862   -0.9185    1.8927 H   0  0  0  0  0  0  0  0  0  0  0  0
    2.5862    0.8454    1.9911 H   0  0  0  0  0  0  0  0  0  0  0  0
    4.8537    0.9014    0.9350 H   0  0  0  0  0  0  0  0  0  0  0  0
    4.8537   -0.8568    0.8369 H   0  0  0  0  0  0  0  0  0  0  0  0
    4.6951   -1.0067    3.3310 H   0  0  0  0  0  0  0  0  0  0  0  0
    4.6951    0.7731    3.4303 H   0  0  0  0  0  0  0  0  0  0  0  0
    6.6657   -0.2087    5.0279 H   0  0  0  0  0  0  0  0  0  0  0  0
    9.1854   -0.1091    3.2414 H   0  0  0  0  0  0  0  0  0  0  0  0
    9.1429   -0.2123    5.0926 H   0  0  0  0  0  0  0  0  0  0  0  0
  1  2  1  0  0  0  0
  1 10  1  0  0  0  0
  1 11  1  0  0  0  0
  1 12  1  0  0  0  0
  2  3  1  0  0  0  0
  2 13  1  0  0  0  0
  2 14  1  0  0  0  0
  3  4  1  0  0  0  0
  3 15  1  0  0  0  0
  3 16  1  0  0  0  0
  4  5  1  0  0  0  0
  4 17  1  0  0  0  0
  4 18  1  0  0  0  0
  5  6  1  0  0  0  0
  5 19  1  0  0  0  0
  5 20  1  0  0  0  0
  6  7  2  0  0  0  0
  6  8  1  0  0  0  0
  8  9  2  0  0  0  0
  8 21  1  0  0  0  0
  9 22  1  0  0  0  0
  9 23  1  0  0  0  0
M  END
$$$$
