
 OpenBabel07202215583D

 34 34  0  0  0  0  0  0  0  0999 V2000
    1.0856   -0.0538    0.0511 C   0  0  0  0  0  0  0  0  0  0  0  0
    2.5778   -0.0383    0.0764 C   0  0  0  0  0  0  0  0  0  0  0  0
    3.2874   -0.1624    1.2101 C   0  0  0  0  0  0  0  0  0  0  0  0
    4.7787   -0.2429    1.1744 C   0  0  0  0  0  0  0  0  0  0  0  0
    5.3872   -0.1225    0.1137 O   0  0  0  0  0  0  0  0  0  0  0  0
    5.4957   -0.4620    2.4892 C   0  0  0  0  0  0  0  0  0  0  0  0
    5.1234   -1.4665    3.3233 C   0  0  0  0  0  0  0  0  0  0  0  0
    4.1027   -2.5342    3.0181 C   0  0  0  0  0  0  0  0  0  0  0  0
    5.7577   -1.6697    4.6858 C   0  0  0  0  0  0  0  0  0  0  0  0
    6.6246   -0.5127    5.1593 C   0  0  0  0  0  0  0  0  0  0  0  0
    7.5131   -0.0410    4.0223 C   0  0  0  0  0  0  0  0  0  0  0  0
    6.6892    0.4686    2.8024 C   0  0  0  0  0  0  0  0  0  0  0  0
    7.6979    0.5779    1.6380 C   0  0  0  0  0  0  0  0  0  0  0  0
    6.1578    1.8798    3.1209 C   0  0  0  0  0  0  0  0  0  0  0  0
    0.7230    0.1029   -0.9699 H   0  0  0  0  0  0  0  0  0  0  0  0
    0.6774    0.7422    0.6801 H   0  0  0  0  0  0  0  0  0  0  0  0
    0.7021   -1.0203    0.3949 H   0  0  0  0  0  0  0  0  0  0  0  0
    3.0892    0.0592   -0.8806 H   0  0  0  0  0  0  0  0  0  0  0  0
    2.7898   -0.2705    2.1657 H   0  0  0  0  0  0  0  0  0  0  0  0
    3.6639   -2.4665    2.0230 H   0  0  0  0  0  0  0  0  0  0  0  0
    3.2892   -2.4926    3.7497 H   0  0  0  0  0  0  0  0  0  0  0  0
    4.5741   -3.5203    3.0675 H   0  0  0  0  0  0  0  0  0  0  0  0
    6.3656   -2.5827    4.6496 H   0  0  0  0  0  0  0  0  0  0  0  0
    4.9747   -1.8348    5.4360 H   0  0  0  0  0  0  0  0  0  0  0  0
    7.2377   -0.8353    6.0091 H   0  0  0  0  0  0  0  0  0  0  0  0
    5.9957    0.3074    5.5239 H   0  0  0  0  0  0  0  0  0  0  0  0
    8.1585   -0.8779    3.7192 H   0  0  0  0  0  0  0  0  0  0  0  0
    8.1863    0.7447    4.3886 H   0  0  0  0  0  0  0  0  0  0  0  0
    8.0893   -0.4079    1.3606 H   0  0  0  0  0  0  0  0  0  0  0  0
    8.5498    1.2104    1.9136 H   0  0  0  0  0  0  0  0  0  0  0  0
    7.2624    1.0376    0.7474 H   0  0  0  0  0  0  0  0  0  0  0  0
    5.4621    1.8719    3.9667 H   0  0  0  0  0  0  0  0  0  0  0  0
    5.6311    2.3127    2.2641 H   0  0  0  0  0  0  0  0  0  0  0  0
    6.9798    2.5588    3.3783 H   0  0  0  0  0  0  0  0  0  0  0  0
  1  2  1  0  0  0  0
  1 15  1  0  0  0  0
  1 16  1  0  0  0  0
  1 17  1  0  0  0  0
  2  3  2  0  0  0  0
  2 18  1  0  0  0  0
  3  4  1  0  0  0  0
  3 19  1  0  0  0  0
  4  5  2  0  0  0  0
  4  6  1  0  0  0  0
  6  7  2  0  0  0  0
  6 12  1  0  0  0  0
  7  8  1  0  0  0  0
  7  9  1  0  0  0  0
  8 20  1  0  0  0  0
  8 21  1  0  0  0  0
  8 22  1  0  0  0  0
  9 10  1  0  0  0  0
  9 23  1  0  0  0  0
  9 24  1  0  0  0  0
 10 11  1  0  0  0  0
 10 25  1  0  0  0  0
 10 26  1  0  0  0  0
 11 12  1  0  0  0  0
 11 27  1  0  0  0  0
 11 28  1  0  0  0  0
 12 13  1  0  0  0  0
 12 14  1  0  0  0  0
 13 29  1  0  0  0  0
 13 30  1  0  0  0  0
 13 31  1  0  0  0  0
 14 32  1  0  0  0  0
 14 33  1  0  0  0  0
 14 34  1  0  0  0  0
M  END
$$$$
