
 OpenBabel07222214433D

 29 28  0  0  0  0  0  0  0  0999 V2000
    0.9848   -0.0586   -0.0784 C   0  0  0  0  0  0  0  0  0  0  0  0
    2.4989   -0.0502   -0.0835 C   0  0  0  0  0  0  0  0  0  0  0  0
    3.0527    1.1426   -0.8094 C   0  0  0  0  0  0  0  0  0  0  0  0
    4.3706    1.3541   -0.9381 C   0  0  0  0  0  0  0  0  0  0  0  0
    5.3843    0.4112   -0.3643 C   0  0  0  0  0  0  0  0  0  0  0  0
    6.8054    0.8683   -0.6425 C   0  0  0  0  0  0  0  0  0  0  0  0
    7.7949   -0.1210   -0.0404 C   0  0  0  0  0  0  0  0  0  0  0  0
    9.2232    0.3269   -0.3130 C   0  0  0  0  0  0  0  0  0  0  0  0
   10.2144   -0.6585    0.2867 C   0  0  0  0  0  0  0  0  0  0  0  0
   11.6285   -0.2236    0.0221 C   0  0  0  0  0  0  0  0  0  0  0  0
   12.6022   -0.8644    0.4120 O   0  0  0  0  0  0  0  0  0  0  0  0
    0.6196   -0.9394    0.4577 H   0  0  0  0  0  0  0  0  0  0  0  0
    0.5930   -0.0895   -1.0998 H   0  0  0  0  0  0  0  0  0  0  0  0
    0.5930    0.8345    0.4184 H   0  0  0  0  0  0  0  0  0  0  0  0
    2.8558   -0.9703   -0.5618 H   0  0  0  0  0  0  0  0  0  0  0  0
    2.8558   -0.0480    0.9536 H   0  0  0  0  0  0  0  0  0  0  0  0
    2.3596    1.8585   -1.2451 H   0  0  0  0  0  0  0  0  0  0  0  0
    4.7184    2.2347   -1.4740 H   0  0  0  0  0  0  0  0  0  0  0  0
    5.2388   -0.5873   -0.7953 H   0  0  0  0  0  0  0  0  0  0  0  0
    5.2388    0.3353    0.7207 H   0  0  0  0  0  0  0  0  0  0  0  0
    6.9673    1.8651   -0.2141 H   0  0  0  0  0  0  0  0  0  0  0  0
    6.9673    0.9458   -1.7246 H   0  0  0  0  0  0  0  0  0  0  0  0
    7.6285   -1.1187   -0.4660 H   0  0  0  0  0  0  0  0  0  0  0  0
    7.6285   -0.2013    1.0413 H   0  0  0  0  0  0  0  0  0  0  0  0
    9.3848    1.3269    0.1089 H   0  0  0  0  0  0  0  0  0  0  0  0
    9.3848    0.4116   -1.3950 H   0  0  0  0  0  0  0  0  0  0  0  0
   10.0716   -1.6507   -0.1538 H   0  0  0  0  0  0  0  0  0  0  0  0
   10.0716   -0.7231    1.3704 H   0  0  0  0  0  0  0  0  0  0  0  0
   11.7631    0.7114   -0.5469 H   0  0  0  0  0  0  0  0  0  0  0  0
  1  2  1  0  0  0  0
  1 12  1  0  0  0  0
  1 13  1  0  0  0  0
  1 14  1  0  0  0  0
  2  3  1  0  0  0  0
  2 15  1  0  0  0  0
  2 16  1  0  0  0  0
  3  4  2  0  0  0  0
  3 17  1  0  0  0  0
  4  5  1  0  0  0  0
  4 18  1  0  0  0  0
  5  6  1  0  0  0  0
  5 19  1  0  0  0  0
  5 20  1  0  0  0  0
  6  7  1  0  0  0  0
  6 21  1  0  0  0  0
  6 22  1  0  0  0  0
  7  8  1  0  0  0  0
  7 23  1  0  0  0  0
  7 24  1  0  0  0  0
  8  9  1  0  0  0  0
  8 25  1  0  0  0  0
  8 26  1  0  0  0  0
  9 10  1  0  0  0  0
  9 27  1  0  0  0  0
  9 28  1  0  0  0  0
 10 11  2  0  0  0  0
 10 29  1  0  0  0  0
M  END
$$$$
