
 OpenBabel07222214433D

 43 44  0  0  0  0  0  0  0  0999 V2000
    0.9843   -0.1909    0.0345 C   0  0  0  0  0  0  0  0  0  0  0  0
    2.4934   -0.0298   -0.0586 C   0  0  0  0  0  0  0  0  0  0  0  0
    3.0743   -1.3546   -0.5653 C   0  0  0  0  0  0  0  0  0  0  0  0
    4.5559   -1.2892   -0.8216 C   0  0  0  0  0  0  0  0  0  0  0  0
    5.2341   -0.1311   -0.8956 C   0  0  0  0  0  0  0  0  0  0  0  0
    4.5244    1.2090   -0.7230 C   0  0  0  0  0  0  0  0  0  0  0  0
    2.9956    1.1402   -0.9498 C   0  0  0  0  0  0  0  0  0  0  0  0
    2.7379    0.9159   -2.4594 C   0  0  0  0  0  0  0  0  0  0  0  0
    2.4029    2.5058   -0.5516 C   0  0  0  0  0  0  0  0  0  0  0  0
    3.1069    3.4259   -0.1057 O   0  0  0  0  0  0  0  0  0  0  0  0
    0.9259    2.7492   -0.7150 C   0  0  0  0  0  0  0  0  0  0  0  0
    6.7208   -0.0701   -1.1889 C   0  0  0  0  0  0  0  0  0  0  0  0
    7.4550   -1.4241   -1.3328 C   0  0  0  0  0  0  0  0  0  0  0  0
    6.6543   -2.7064   -1.2801 C   0  0  0  0  0  0  0  0  0  0  0  0
    5.1659   -2.6310   -1.0270 C   0  0  0  0  0  0  0  0  0  0  0  0
    6.8950    0.6338   -2.5525 C   0  0  0  0  0  0  0  0  0  0  0  0
    7.3921    0.6659   -0.0115 C   0  0  0  0  0  0  0  0  0  0  0  0
    0.7104   -1.0802    0.6068 H   0  0  0  0  0  0  0  0  0  0  0  0
    0.5401   -0.2814   -0.9610 H   0  0  0  0  0  0  0  0  0  0  0  0
    0.5412    0.6516    0.5660 H   0  0  0  0  0  0  0  0  0  0  0  0
    2.8625    0.1312    0.9665 H   0  0  0  0  0  0  0  0  0  0  0  0
    2.5782   -1.6536   -1.4998 H   0  0  0  0  0  0  0  0  0  0  0  0
    2.8546   -2.1465    0.1604 H   0  0  0  0  0  0  0  0  0  0  0  0
    4.9277    1.9665   -1.4035 H   0  0  0  0  0  0  0  0  0  0  0  0
    4.7457    1.5806    0.2878 H   0  0  0  0  0  0  0  0  0  0  0  0
    3.2315    0.0189   -2.8488 H   0  0  0  0  0  0  0  0  0  0  0  0
    3.1166    1.7548   -3.0536 H   0  0  0  0  0  0  0  0  0  0  0  0
    1.6733    0.8084   -2.6775 H   0  0  0  0  0  0  0  0  0  0  0  0
    0.4254    1.9166   -1.2071 H   0  0  0  0  0  0  0  0  0  0  0  0
    0.7588    3.6252   -1.3410 H   0  0  0  0  0  0  0  0  0  0  0  0
    0.4872    2.8942    0.2765 H   0  0  0  0  0  0  0  0  0  0  0  0
    8.2588   -1.5001   -0.5884 H   0  0  0  0  0  0  0  0  0  0  0  0
    8.0038   -1.4426   -2.2850 H   0  0  0  0  0  0  0  0  0  0  0  0
    7.1028   -3.3525   -0.5157 H   0  0  0  0  0  0  0  0  0  0  0  0
    6.8061   -3.2347   -2.2291 H   0  0  0  0  0  0  0  0  0  0  0  0
    4.9394   -3.2452   -0.1469 H   0  0  0  0  0  0  0  0  0  0  0  0
    4.6535   -3.1008   -1.8759 H   0  0  0  0  0  0  0  0  0  0  0  0
    6.3704    0.0550   -3.3279 H   0  0  0  0  0  0  0  0  0  0  0  0
    7.9484    0.6929   -2.8409 H   0  0  0  0  0  0  0  0  0  0  0  0
    6.5011    1.6509   -2.5919 H   0  0  0  0  0  0  0  0  0  0  0  0
    7.2087    0.1102    0.9214 H   0  0  0  0  0  0  0  0  0  0  0  0
    7.0149    1.6813    0.1401 H   0  0  0  0  0  0  0  0  0  0  0  0
    8.4758    0.7329   -0.1429 H   0  0  0  0  0  0  0  0  0  0  0  0
  1  2  1  0  0  0  0
  1 18  1  0  0  0  0
  1 19  1  0  0  0  0
  1 20  1  0  0  0  0
  2  3  1  0  0  0  0
  2  7  1  0  0  0  0
  2 21  1  0  0  0  0
  3  4  1  0  0  0  0
  3 22  1  0  0  0  0
  3 23  1  0  0  0  0
  4  5  2  0  0  0  0
  4 15  1  0  0  0  0
  5  6  1  0  0  0  0
  5 12  1  0  0  0  0
  6  7  1  0  0  0  0
  6 24  1  0  0  0  0
  6 25  1  0  0  0  0
  7  8  1  0  0  0  0
  7  9  1  0  0  0  0
  8 26  1  0  0  0  0
  8 27  1  0  0  0  0
  8 28  1  0  0  0  0
  9 10  2  0  0  0  0
  9 11  1  0  0  0  0
 11 29  1  0  0  0  0
 11 30  1  0  0  0  0
 11 31  1  0  0  0  0
 12 13  1  0  0  0  0
 12 16  1  0  0  0  0
 12 17  1  0  0  0  0
 13 14  1  0  0  0  0
 13 32  1  0  0  0  0
 13 33  1  0  0  0  0
 14 15  1  0  0  0  0
 14 34  1  0  0  0  0
 14 35  1  0  0  0  0
 15 36  1  0  0  0  0
 15 37  1  0  0  0  0
 16 38  1  0  0  0  0
 16 39  1  0  0  0  0
 16 40  1  0  0  0  0
 17 41  1  0  0  0  0
 17 42  1  0  0  0  0
 17 43  1  0  0  0  0
M  END
$$$$
