
 OpenBabel07202215583D

 34 34  0  0  0  0  0  0  0  0999 V2000
    0.9786   -0.0889   -0.0793 C   0  0  0  0  0  0  0  0  0  0  0  0
    2.4669   -0.0470    0.0645 C   0  0  0  0  0  0  0  0  0  0  0  0
    3.0073    0.2325    1.1299 O   0  0  0  0  0  0  0  0  0  0  0  0
    3.1075   -0.3479   -1.0977 O   0  0  0  0  0  0  0  0  0  0  0  0
    4.5701   -0.3614   -1.1292 C   0  0  0  0  0  0  0  0  0  0  0  0
    5.1239    1.0332   -0.7922 C   0  0  0  0  0  0  0  0  0  0  0  0
    5.1204   -1.4070   -0.1394 C   0  0  0  0  0  0  0  0  0  0  0  0
    5.0231   -0.7568   -2.5779 C   0  0  0  0  0  0  0  0  0  0  0  0
    4.4436   -2.1172   -2.9956 C   0  0  0  0  0  0  0  0  0  0  0  0
    4.8691   -2.5355   -4.3936 C   0  0  0  0  0  0  0  0  0  0  0  0
    4.8476   -1.4271   -5.4021 C   0  0  0  0  0  0  0  0  0  0  0  0
    4.7493   -0.1362   -5.0463 C   0  0  0  0  0  0  0  0  0  0  0  0
    4.6511    0.3205   -3.6220 C   0  0  0  0  0  0  0  0  0  0  0  0
    4.9455   -1.8602   -6.8311 C   0  0  0  0  0  0  0  0  0  0  0  0
    0.5424    0.1704    0.8926 H   0  0  0  0  0  0  0  0  0  0  0  0
    0.6413   -1.0938   -0.3416 H   0  0  0  0  0  0  0  0  0  0  0  0
    0.6382    0.6495   -0.8080 H   0  0  0  0  0  0  0  0  0  0  0  0
    4.8458    1.3574    0.2119 H   0  0  0  0  0  0  0  0  0  0  0  0
    4.7217    1.7976   -1.4649 H   0  0  0  0  0  0  0  0  0  0  0  0
    6.2165    1.0460   -0.8543 H   0  0  0  0  0  0  0  0  0  0  0  0
    4.8461   -1.1863    0.8933 H   0  0  0  0  0  0  0  0  0  0  0  0
    6.2130   -1.4550   -0.1873 H   0  0  0  0  0  0  0  0  0  0  0  0
    4.7165   -2.4051   -0.3329 H   0  0  0  0  0  0  0  0  0  0  0  0
    6.1216   -0.8461   -2.5840 H   0  0  0  0  0  0  0  0  0  0  0  0
    3.3492   -2.0855   -2.9414 H   0  0  0  0  0  0  0  0  0  0  0  0
    4.7741   -2.9109   -2.3193 H   0  0  0  0  0  0  0  0  0  0  0  0
    4.2036   -3.3458   -4.7131 H   0  0  0  0  0  0  0  0  0  0  0  0
    5.8869   -2.9423   -4.3567 H   0  0  0  0  0  0  0  0  0  0  0  0
    4.7411    0.6443   -5.8046 H   0  0  0  0  0  0  0  0  0  0  0  0
    3.6315    0.6832   -3.4504 H   0  0  0  0  0  0  0  0  0  0  0  0
    5.3238    1.1799   -3.5049 H   0  0  0  0  0  0  0  0  0  0  0  0
    4.9766   -2.9534   -6.9000 H   0  0  0  0  0  0  0  0  0  0  0  0
    5.8606   -1.4755   -7.2890 H   0  0  0  0  0  0  0  0  0  0  0  0
    4.0733   -1.5223   -7.3981 H   0  0  0  0  0  0  0  0  0  0  0  0
  1  2  1  0  0  0  0
  1 15  1  0  0  0  0
  1 16  1  0  0  0  0
  1 17  1  0  0  0  0
  2  3  2  0  0  0  0
  2  4  1  0  0  0  0
  4  5  1  0  0  0  0
  5  6  1  0  0  0  0
  5  7  1  0  0  0  0
  5  8  1  0  0  0  0
  6 18  1  0  0  0  0
  6 19  1  0  0  0  0
  6 20  1  0  0  0  0
  7 21  1  0  0  0  0
  7 22  1  0  0  0  0
  7 23  1  0  0  0  0
  8  9  1  0  0  0  0
  8 13  1  0  0  0  0
  8 24  1  0  0  0  0
  9 10  1  0  0  0  0
  9 25  1  0  0  0  0
  9 26  1  0  0  0  0
 10 11  1  0  0  0  0
 10 27  1  0  0  0  0
 10 28  1  0  0  0  0
 11 12  2  0  0  0  0
 11 14  1  0  0  0  0
 12 13  1  0  0  0  0
 12 29  1  0  0  0  0
 13 30  1  0  0  0  0
 13 31  1  0  0  0  0
 14 32  1  0  0  0  0
 14 33  1  0  0  0  0
 14 34  1  0  0  0  0
M  END
$$$$
