
 OpenBabel07222214433D

 11 10  0  0  0  0  0  0  0  0999 V2000
    1.0327    0.0974   -0.0251 C   0  0  0  0  0  0  0  0  0  0  0  0
    2.5462    0.0160    0.0079 C   0  0  0  0  0  0  0  0  0  0  0  0
    3.1279   -1.2788    0.5325 C   0  0  0  0  0  0  0  0  0  0  0  0
    2.2593   -2.2328    0.9190 O   0  0  0  0  0  0  0  0  0  0  0  0
    4.3378   -1.4615    0.6065 O   0  0  0  0  0  0  0  0  0  0  0  0
    0.7024    1.0638   -0.4166 H   0  0  0  0  0  0  0  0  0  0  0  0
    0.6170   -0.0200    0.9811 H   0  0  0  0  0  0  0  0  0  0  0  0
    0.6170   -0.6873   -0.6658 H   0  0  0  0  0  0  0  0  0  0  0  0
    2.9300    0.8284    0.6362 H   0  0  0  0  0  0  0  0  0  0  0  0
    2.9300    0.1619   -1.0087 H   0  0  0  0  0  0  0  0  0  0  0  0
    1.3101   -2.0345    0.8387 H   0  0  0  0  0  0  0  0  0  0  0  0
  1  2  1  0  0  0  0
  1  6  1  0  0  0  0
  1  7  1  0  0  0  0
  1  8  1  0  0  0  0
  2  3  1  0  0  0  0
  2  9  1  0  0  0  0
  2 10  1  0  0  0  0
  3  4  1  0  0  0  0
  3  5  2  0  0  0  0
  4 11  1  0  0  0  0
M  END
$$$$
