
 OpenBabel07122215493D

 22 21  0  0  0  0  0  0  0  0999 V2000
    0.9018    0.0071   -0.0573 C   0  0  0  0  0  0  0  0  0  0  0  0
    2.4155    0.0177   -0.0761 C   0  0  0  0  0  0  0  0  0  0  0  0
    2.9239    0.7217   -1.3307 C   0  0  0  0  0  0  0  0  0  0  0  0
    4.4395    0.7216   -1.3305 C   0  0  0  0  0  0  0  0  0  0  0  0
    5.0248    1.4070   -2.5521 C   0  0  0  0  0  0  0  0  0  0  0  0
    6.5420    1.4195   -2.5744 C   0  0  0  0  0  0  0  0  0  0  0  0
    7.3377    0.7911   -1.4545 C   0  0  0  0  0  0  0  0  0  0  0  0
    7.1345    1.9510   -3.5215 O   0  0  0  0  0  0  0  0  0  0  0  0
    0.5359   -0.4968    0.8408 H   0  0  0  0  0  0  0  0  0  0  0  0
    0.5115   -0.5184   -0.9343 H   0  0  0  0  0  0  0  0  0  0  0  0
    0.5115    1.0295   -0.0657 H   0  0  0  0  0  0  0  0  0  0  0  0
    2.7925   -1.0120   -0.0431 H   0  0  0  0  0  0  0  0  0  0  0  0
    2.7925    0.5260    0.8199 H   0  0  0  0  0  0  0  0  0  0  0  0
    2.5529    1.7527   -1.3600 H   0  0  0  0  0  0  0  0  0  0  0  0
    2.5529    0.2094   -2.2259 H   0  0  0  0  0  0  0  0  0  0  0  0
    4.7901   -0.3174   -1.2919 H   0  0  0  0  0  0  0  0  0  0  0  0
    4.7901    1.2299   -0.4236 H   0  0  0  0  0  0  0  0  0  0  0  0
    4.6810    2.4476   -2.5927 H   0  0  0  0  0  0  0  0  0  0  0  0
    4.6810    0.8994   -3.4615 H   0  0  0  0  0  0  0  0  0  0  0  0
    6.7264    0.3502   -0.6687 H   0  0  0  0  0  0  0  0  0  0  0  0
    7.9564    1.5588   -0.9850 H   0  0  0  0  0  0  0  0  0  0  0  0
    7.9564   -0.0096   -1.8650 H   0  0  0  0  0  0  0  0  0  0  0  0
  1  2  1  0  0  0  0
  1  9  1  0  0  0  0
  1 10  1  0  0  0  0
  1 11  1  0  0  0  0
  2  3  1  0  0  0  0
  2 12  1  0  0  0  0
  2 13  1  0  0  0  0
  3  4  1  0  0  0  0
  3 14  1  0  0  0  0
  3 15  1  0  0  0  0
  4  5  1  0  0  0  0
  4 16  1  0  0  0  0
  4 17  1  0  0  0  0
  5  6  1  0  0  0  0
  5 18  1  0  0  0  0
  5 19  1  0  0  0  0
  6  7  1  0  0  0  0
  6  8  2  0  0  0  0
  7 20  1  0  0  0  0
  7 21  1  0  0  0  0
  7 22  1  0  0  0  0
M  END
$$$$
