
 OpenBabel07222214433D

 29 29  0  0  0  0  0  0  0  0999 V2000
    1.0226   -0.0925    0.0452 C   0  0  0  0  0  0  0  0  0  0  0  0
    2.5446   -0.1027    0.0590 C   0  0  0  0  0  0  0  0  0  0  0  0
    3.0951   -0.9582    1.2046 C   0  0  0  0  0  0  0  0  0  0  0  0
    4.6284   -0.9693    1.2221 C   0  0  0  0  0  0  0  0  0  0  0  0
    5.1021   -1.7962    2.3057 O   0  0  0  0  0  0  0  0  0  0  0  0
    6.4609   -1.8527    2.4466 C   0  0  0  0  0  0  0  0  0  0  0  0
    7.2765   -1.2524    1.7603 O   0  0  0  0  0  0  0  0  0  0  0  0
    6.8258   -2.7151    3.6054 C   0  0  0  0  0  0  0  0  0  0  0  0
    7.7898   -2.2479    4.5193 C   0  0  0  0  0  0  0  0  0  0  0  0
    8.1224   -3.0071    5.6472 C   0  0  0  0  0  0  0  0  0  0  0  0
    7.5182   -4.2442    5.8522 C   0  0  0  0  0  0  0  0  0  0  0  0
    6.6060   -4.7355    4.9140 C   0  0  0  0  0  0  0  0  0  0  0  0
    6.2306   -3.9788    3.7906 C   0  0  0  0  0  0  0  0  0  0  0  0
    5.4979   -4.6126    2.7730 N   0  0  0  0  0  0  0  0  0  0  0  0
    0.6507    0.5241   -0.7801 H   0  0  0  0  0  0  0  0  0  0  0  0
    0.6252    0.3175    0.9791 H   0  0  0  0  0  0  0  0  0  0  0  0
    0.6253   -1.1044   -0.0833 H   0  0  0  0  0  0  0  0  0  0  0  0
    2.9067    0.9279    0.1535 H   0  0  0  0  0  0  0  0  0  0  0  0
    2.9069   -0.4857   -0.9023 H   0  0  0  0  0  0  0  0  0  0  0  0
    2.7193   -1.9853    1.1157 H   0  0  0  0  0  0  0  0  0  0  0  0
    2.7175   -0.5826    2.1639 H   0  0  0  0  0  0  0  0  0  0  0  0
    4.9988    0.0542    1.3504 H   0  0  0  0  0  0  0  0  0  0  0  0
    4.9990   -1.3785    0.2757 H   0  0  0  0  0  0  0  0  0  0  0  0
    8.2855   -1.2928    4.3579 H   0  0  0  0  0  0  0  0  0  0  0  0
    8.8527   -2.6391    6.3654 H   0  0  0  0  0  0  0  0  0  0  0  0
    7.7710   -4.8403    6.7273 H   0  0  0  0  0  0  0  0  0  0  0  0
    6.1896   -5.7288    5.0649 H   0  0  0  0  0  0  0  0  0  0  0  0
    4.9003   -5.3786    3.0613 H   0  0  0  0  0  0  0  0  0  0  0  0
    5.0583   -3.9773    2.1099 H   0  0  0  0  0  0  0  0  0  0  0  0
  1  2  1  0  0  0  0
  1 15  1  0  0  0  0
  1 16  1  0  0  0  0
  1 17  1  0  0  0  0
  2  3  1  0  0  0  0
  2 18  1  0  0  0  0
  2 19  1  0  0  0  0
  3  4  1  0  0  0  0
  3 20  1  0  0  0  0
  3 21  1  0  0  0  0
  4  5  1  0  0  0  0
  4 22  1  0  0  0  0
  4 23  1  0  0  0  0
  5  6  1  0  0  0  0
  6  7  2  0  0  0  0
  6  8  1  0  0  0  0
  8  9  1  0  0  0  0
  8 13  2  0  0  0  0
  9 10  2  0  0  0  0
  9 24  1  0  0  0  0
 10 11  1  0  0  0  0
 10 25  1  0  0  0  0
 11 12  2  0  0  0  0
 11 26  1  0  0  0  0
 12 13  1  0  0  0  0
 12 27  1  0  0  0  0
 13 14  1  0  0  0  0
 14 28  1  0  0  0  0
 14 29  1  0  0  0  0
M  END
$$$$
