
 OpenBabel07202215583D

 27 26  0  0  1  0  0  0  0  0999 V2000
    6.7478    2.3089    0.3824 C   0  0  0  0  0  0  0  0  0  0  0  0
    6.2444    0.8780    0.3114 C   0  0  0  0  0  0  0  0  0  0  0  0
    5.1342    0.6460    1.3365 C   0  0  0  0  0  0  0  0  0  0  0  0
    4.5929   -0.7901    1.2562 C   0  0  2  0  0  0  0  0  0  0  0  0
    3.0566   -0.8234    1.1861 C   0  0  0  0  0  0  0  0  0  0  0  0
    2.6001   -0.9739   -0.2517 C   0  0  0  0  0  0  0  0  0  0  0  0
    3.3502   -1.0566   -1.2182 O   0  0  0  0  0  0  0  0  0  0  0  0
    1.2373   -0.9961   -0.3453 O   0  0  0  0  0  0  0  0  0  0  0  0
    0.7669   -1.1624   -1.6960 C   0  0  0  0  0  0  0  0  0  0  0  0
   -0.7506   -1.1648   -1.7193 C   0  0  0  0  0  0  0  0  0  0  0  0
    5.0485   -1.5317    2.3941 O   0  0  0  0  0  0  0  0  0  0  0  0
    7.5339    2.4734   -0.3598 H   0  0  0  0  0  0  0  0  0  0  0  0
    7.1568    2.5270    1.3738 H   0  0  0  0  0  0  0  0  0  0  0  0
    5.9358    3.0161    0.1835 H   0  0  0  0  0  0  0  0  0  0  0  0
    7.0738    0.1844    0.4890 H   0  0  0  0  0  0  0  0  0  0  0  0
    5.8618    0.6823   -0.6977 H   0  0  0  0  0  0  0  0  0  0  0  0
    4.3403    1.3750    1.1353 H   0  0  0  0  0  0  0  0  0  0  0  0
    5.5216    0.8595    2.3407 H   0  0  0  0  0  0  0  0  0  0  0  0
    5.0312   -1.3091    0.3978 H   0  0  0  0  0  0  0  0  0  0  0  0
    2.6687   -1.6619    1.7743 H   0  0  0  0  0  0  0  0  0  0  0  0
    2.6299    0.0991    1.5980 H   0  0  0  0  0  0  0  0  0  0  0  0
    1.1342   -2.1148   -2.0964 H   0  0  0  0  0  0  0  0  0  0  0  0
    1.1348   -0.3398   -2.3211 H   0  0  0  0  0  0  0  0  0  0  0  0
   -1.1479   -1.9729   -1.0975 H   0  0  0  0  0  0  0  0  0  0  0  0
   -1.1220   -1.2967   -2.7412 H   0  0  0  0  0  0  0  0  0  0  0  0
   -1.1474   -0.2247   -1.3237 H   0  0  0  0  0  0  0  0  0  0  0  0
    4.7613   -1.0747    3.2015 H   0  0  0  0  0  0  0  0  0  0  0  0
  1  2  1  0  0  0  0
  1 12  1  0  0  0  0
  1 13  1  0  0  0  0
  1 14  1  0  0  0  0
  2  3  1  0  0  0  0
  2 15  1  0  0  0  0
  2 16  1  0  0  0  0
  3 17  1  0  0  0  0
  3 18  1  0  0  0  0
  4 11  1  0  0  0  0
  4  5  1  0  0  0  0
  4  3  1  0  0  0  0
  4 19  1  6  0  0  0
  5  6  1  0  0  0  0
  5 20  1  0  0  0  0
  5 21  1  0  0  0  0
  6  7  2  0  0  0  0
  6  8  1  0  0  0  0
  8  9  1  0  0  0  0
  9 10  1  0  0  0  0
  9 22  1  0  0  0  0
  9 23  1  0  0  0  0
 10 24  1  0  0  0  0
 10 25  1  0  0  0  0
 10 26  1  0  0  0  0
 11 27  1  0  0  0  0
M  END
$$$$
