
 OpenBabel07222214443D

 32 32  0  0  0  0  0  0  0  0999 V2000
    0.8825   -0.0642    0.1187 C   0  0  0  0  0  0  0  0  0  0  0  0
    2.3809    0.0108    0.0467 C   0  0  0  0  0  0  0  0  0  0  0  0
    2.7683    1.0714   -0.9977 C   0  0  0  0  0  0  0  0  0  0  0  0
    4.2600    1.0465   -1.0662 C   0  0  0  0  0  0  0  0  0  0  0  0
    4.9855    2.0389   -1.9533 C   0  0  0  0  0  0  0  0  0  0  0  0
    6.5363    1.9623   -1.8804 C   0  0  0  0  0  0  0  0  0  0  0  0
    7.1106    0.5796   -2.2266 C   0  0  0  0  0  0  0  0  0  0  0  0
    6.8615   -0.4931   -1.1752 C   0  0  0  0  0  0  0  0  0  0  0  0
    7.0071    0.0027    0.2592 C   0  0  0  0  0  0  0  0  0  0  0  0
    7.1815   -0.8273    1.1674 O   0  0  0  0  0  0  0  0  0  0  0  0
    6.8291    1.4773    0.6184 C   0  0  0  0  0  0  0  0  0  0  0  0
    7.1195    2.4215   -0.5351 C   0  0  0  0  0  0  0  0  0  0  0  0
    0.5673   -0.8072    0.8529 H   0  0  0  0  0  0  0  0  0  0  0  0
    0.4860   -0.3378   -0.8628 H   0  0  0  0  0  0  0  0  0  0  0  0
    0.4840    0.9137    0.4014 H   0  0  0  0  0  0  0  0  0  0  0  0
    2.7982   -0.9729   -0.2155 H   0  0  0  0  0  0  0  0  0  0  0  0
    2.7963    0.2594    1.0347 H   0  0  0  0  0  0  0  0  0  0  0  0
    2.4138    2.0610   -0.6986 H   0  0  0  0  0  0  0  0  0  0  0  0
    2.3634    0.8143   -1.9800 H   0  0  0  0  0  0  0  0  0  0  0  0
    4.4687    0.0464   -1.4128 H   0  0  0  0  0  0  0  0  0  0  0  0
    4.5612    1.1391   -0.0376 H   0  0  0  0  0  0  0  0  0  0  0  0
    4.6668    3.0589   -1.7107 H   0  0  0  0  0  0  0  0  0  0  0  0
    4.6811    1.8483   -2.9892 H   0  0  0  0  0  0  0  0  0  0  0  0
    6.9112    2.6636   -2.6411 H   0  0  0  0  0  0  0  0  0  0  0  0
    8.1992    0.6712   -2.3388 H   0  0  0  0  0  0  0  0  0  0  0  0
    6.7338    0.2550   -3.2051 H   0  0  0  0  0  0  0  0  0  0  0  0
    7.5533   -1.3254   -1.3365 H   0  0  0  0  0  0  0  0  0  0  0  0
    5.8956   -0.9815   -1.3118 H   0  0  0  0  0  0  0  0  0  0  0  0
    7.4816    1.7070    1.4653 H   0  0  0  0  0  0  0  0  0  0  0  0
    5.8404    1.6852    1.0336 H   0  0  0  0  0  0  0  0  0  0  0  0
    8.2106    2.5047   -0.6257 H   0  0  0  0  0  0  0  0  0  0  0  0
    6.7569    3.4299   -0.2984 H   0  0  0  0  0  0  0  0  0  0  0  0
  1  2  1  0  0  0  0
  1 13  1  0  0  0  0
  1 14  1  0  0  0  0
  1 15  1  0  0  0  0
  2  3  1  0  0  0  0
  2 16  1  0  0  0  0
  2 17  1  0  0  0  0
  3  4  1  0  0  0  0
  3 18  1  0  0  0  0
  3 19  1  0  0  0  0
  4  5  1  0  0  0  0
  4 20  1  0  0  0  0
  4 21  1  0  0  0  0
  5  6  1  0  0  0  0
  5 22  1  0  0  0  0
  5 23  1  0  0  0  0
  6  7  1  0  0  0  0
  6 12  1  0  0  0  0
  6 24  1  0  0  0  0
  7  8  1  0  0  0  0
  7 25  1  0  0  0  0
  7 26  1  0  0  0  0
  8  9  1  0  0  0  0
  8 27  1  0  0  0  0
  8 28  1  0  0  0  0
  9 10  2  0  0  0  0
  9 11  1  0  0  0  0
 11 12  1  0  0  0  0
 11 29  1  0  0  0  0
 11 30  1  0  0  0  0
 12 31  1  0  0  0  0
 12 32  1  0  0  0  0
M  END
$$$$
