
 OpenBabel07202215583D

 31 30  0  0  0  0  0  0  0  0999 V2000
    0.8866    0.0566   -0.0111 C   0  0  0  0  0  0  0  0  0  0  0  0
    2.4012    0.0592   -0.0045 C   0  0  0  0  0  0  0  0  0  0  0  0
    2.9322    1.0135    1.0561 C   0  0  0  0  0  0  0  0  0  0  0  0
    4.4532    1.0156    1.0291 C   0  0  0  0  0  0  0  0  0  0  0  0
    5.0046    1.9947    2.0598 C   0  0  0  0  0  0  0  0  0  0  0  0
    6.5413    2.0324    2.1010 C   0  0  0  0  0  0  0  0  0  0  0  0
    7.2024    2.5269    0.4496 S   0  0  0  0  0  0  0  0  0  0  0  0
    7.0700    2.9658    3.2193 C   0  0  0  0  0  0  0  0  0  0  0  0
    6.5482    2.5448    4.6065 C   0  0  0  0  0  0  0  0  0  0  0  0
    8.6079    2.9927    3.2518 C   0  0  0  0  0  0  0  0  0  0  0  0
    9.0707    3.8883    4.2570 O   0  0  0  0  0  0  0  0  0  0  0  0
    0.5144   -0.6301   -0.7758 H   0  0  0  0  0  0  0  0  0  0  0  0
    0.4997    1.0575   -0.2271 H   0  0  0  0  0  0  0  0  0  0  0  0
    0.4965   -0.2614    0.9607 H   0  0  0  0  0  0  0  0  0  0  0  0
    2.7713    0.3584   -0.9924 H   0  0  0  0  0  0  0  0  0  0  0  0
    2.7727   -0.9542    0.1878 H   0  0  0  0  0  0  0  0  0  0  0  0
    2.5741    0.7147    2.0488 H   0  0  0  0  0  0  0  0  0  0  0  0
    2.5586    2.0278    0.8678 H   0  0  0  0  0  0  0  0  0  0  0  0
    4.7812    1.2805    0.0196 H   0  0  0  0  0  0  0  0  0  0  0  0
    4.8320    0.0088    1.2439 H   0  0  0  0  0  0  0  0  0  0  0  0
    4.6154    1.6724    3.0317 H   0  0  0  0  0  0  0  0  0  0  0  0
    4.6032    3.0015    1.8848 H   0  0  0  0  0  0  0  0  0  0  0  0
    6.9091    1.0158    2.2869 H   0  0  0  0  0  0  0  0  0  0  0  0
    6.6020    3.7239    0.3826 H   0  0  0  0  0  0  0  0  0  0  0  0
    6.7038    3.9867    3.0427 H   0  0  0  0  0  0  0  0  0  0  0  0
    6.8553    1.5204    4.8439 H   0  0  0  0  0  0  0  0  0  0  0  0
    5.4580    2.5982    4.6723 H   0  0  0  0  0  0  0  0  0  0  0  0
    6.9286    3.2051    5.3919 H   0  0  0  0  0  0  0  0  0  0  0  0
    9.0406    3.3297    2.3066 H   0  0  0  0  0  0  0  0  0  0  0  0
    9.0059    1.9960    3.4670 H   0  0  0  0  0  0  0  0  0  0  0  0
    8.7366    4.7691    4.0309 H   0  0  0  0  0  0  0  0  0  0  0  0
  1  2  1  0  0  0  0
  1 12  1  0  0  0  0
  1 13  1  0  0  0  0
  1 14  1  0  0  0  0
  2  3  1  0  0  0  0
  2 15  1  0  0  0  0
  2 16  1  0  0  0  0
  3  4  1  0  0  0  0
  3 17  1  0  0  0  0
  3 18  1  0  0  0  0
  4  5  1  0  0  0  0
  4 19  1  0  0  0  0
  4 20  1  0  0  0  0
  5  6  1  0  0  0  0
  5 21  1  0  0  0  0
  5 22  1  0  0  0  0
  6  7  1  0  0  0  0
  6  8  1  0  0  0  0
  6 23  1  0  0  0  0
  7 24  1  0  0  0  0
  8  9  1  0  0  0  0
  8 10  1  0  0  0  0
  8 25  1  0  0  0  0
  9 26  1  0  0  0  0
  9 27  1  0  0  0  0
  9 28  1  0  0  0  0
 10 11  1  0  0  0  0
 10 29  1  0  0  0  0
 10 30  1  0  0  0  0
 11 31  1  0  0  0  0
M  END
$$$$
