
 OpenBabel07222214443D

 21 21  0  0  0  0  0  0  0  0999 V2000
    0.9706    0.0090   -0.0659 C   0  0  0  0  0  0  0  0  0  0  0  0
    2.3962   -0.0388   -0.0479 O   0  0  0  0  0  0  0  0  0  0  0  0
    3.0362    1.1762   -0.0562 C   0  0  0  0  0  0  0  0  0  0  0  0
    4.4317    1.1355   -0.0793 C   0  0  0  0  0  0  0  0  0  0  0  0
    5.1888    2.3014   -0.1033 C   0  0  0  0  0  0  0  0  0  0  0  0
    4.5422    3.5388   -0.1077 C   0  0  0  0  0  0  0  0  0  0  0  0
    3.1418    3.6149   -0.0763 C   0  0  0  0  0  0  0  0  0  0  0  0
    2.4005    2.4204   -0.0399 C   0  0  0  0  0  0  0  0  0  0  0  0
    2.4779    4.9711   -0.0679 C   0  0  0  0  0  0  0  0  0  0  0  0
    1.0572    4.8928   -0.0575 O   0  0  0  0  0  0  0  0  0  0  0  0
    5.0990   -0.0593   -0.0733 O   0  0  0  0  0  0  0  0  0  0  0  0
    0.5938   -1.0174   -0.0761 H   0  0  0  0  0  0  0  0  0  0  0  0
    0.6024    0.5066   -0.9708 H   0  0  0  0  0  0  0  0  0  0  0  0
    0.5826    0.4961    0.8357 H   0  0  0  0  0  0  0  0  0  0  0  0
    6.2723    2.2451   -0.1160 H   0  0  0  0  0  0  0  0  0  0  0  0
    5.1429    4.4466   -0.1262 H   0  0  0  0  0  0  0  0  0  0  0  0
    1.3208    2.4828    0.0151 H   0  0  0  0  0  0  0  0  0  0  0  0
    2.7726    5.5348   -0.9593 H   0  0  0  0  0  0  0  0  0  0  0  0
    2.7865    5.5282    0.8219 H   0  0  0  0  0  0  0  0  0  0  0  0
    0.7974    4.4238   -0.8681 H   0  0  0  0  0  0  0  0  0  0  0  0
    4.4023   -0.7423   -0.0355 H   0  0  0  0  0  0  0  0  0  0  0  0
  1  2  1  0  0  0  0
  1 12  1  0  0  0  0
  1 13  1  0  0  0  0
  1 14  1  0  0  0  0
  2  3  1  0  0  0  0
  3  4  2  0  0  0  0
  3  8  1  0  0  0  0
  4  5  1  0  0  0  0
  4 11  1  0  0  0  0
  5  6  2  0  0  0  0
  5 15  1  0  0  0  0
  6  7  1  0  0  0  0
  6 16  1  0  0  0  0
  7  8  2  0  0  0  0
  7  9  1  0  0  0  0
  8 17  1  0  0  0  0
  9 10  1  0  0  0  0
  9 18  1  0  0  0  0
  9 19  1  0  0  0  0
 10 20  1  0  0  0  0
 11 21  1  0  0  0  0
M  END
$$$$
