
 OpenBabel07202215583D

 28 28  0  0  0  0  0  0  0  0999 V2000
   -1.7672   -1.6266    0.0063 C   0  0  0  0  0  0  0  0  0  0  0  0
   -0.5663   -0.7255    0.0019 C   0  0  0  0  0  0  0  0  0  0  0  0
   -0.6078    0.6676    0.0048 C   0  0  0  0  0  0  0  0  0  0  0  0
    0.5667    1.4137    0.0102 C   0  0  0  0  0  0  0  0  0  0  0  0
    1.8095    0.7776    0.0058 C   0  0  0  0  0  0  0  0  0  0  0  0
    1.9022   -0.6227   -0.0102 C   0  0  0  0  0  0  0  0  0  0  0  0
    0.6968   -1.3486   -0.0073 C   0  0  0  0  0  0  0  0  0  0  0  0
    3.2749   -1.3135   -0.0368 C   0  0  0  0  0  0  0  0  0  0  0  0
    4.0525   -0.8824   -1.2983 C   0  0  0  0  0  0  0  0  0  0  0  0
    4.0863   -0.9205    1.2150 C   0  0  0  0  0  0  0  0  0  0  0  0
    3.1676   -2.8546   -0.0600 C   0  0  0  0  0  0  0  0  0  0  0  0
   -1.7642    1.3929    0.0020 O   0  0  0  0  0  0  0  0  0  0  0  0
   -2.7173   -1.0914    0.0263 H   0  0  0  0  0  0  0  0  0  0  0  0
   -1.7422   -2.2738    0.8900 H   0  0  0  0  0  0  0  0  0  0  0  0
   -1.7643   -2.2540   -0.8918 H   0  0  0  0  0  0  0  0  0  0  0  0
    0.5165    2.4994    0.0155 H   0  0  0  0  0  0  0  0  0  0  0  0
    2.7033    1.3966    0.0112 H   0  0  0  0  0  0  0  0  0  0  0  0
    0.7085   -2.4359   -0.0139 H   0  0  0  0  0  0  0  0  0  0  0  0
    4.2363    0.1975   -1.3224 H   0  0  0  0  0  0  0  0  0  0  0  0
    3.5019   -1.1420   -2.2101 H   0  0  0  0  0  0  0  0  0  0  0  0
    5.0305   -1.3753   -1.3463 H   0  0  0  0  0  0  0  0  0  0  0  0
    4.2714    0.1582    1.2663 H   0  0  0  0  0  0  0  0  0  0  0  0
    5.0650   -1.4146    1.2211 H   0  0  0  0  0  0  0  0  0  0  0  0
    3.5606   -1.2078    2.1331 H   0  0  0  0  0  0  0  0  0  0  0  0
    2.6221   -3.2021   -0.9461 H   0  0  0  0  0  0  0  0  0  0  0  0
    2.6463   -3.2307    0.8289 H   0  0  0  0  0  0  0  0  0  0  0  0
    4.1541   -3.3291   -0.0813 H   0  0  0  0  0  0  0  0  0  0  0  0
   -2.5219    0.7947   -0.0220 H   0  0  0  0  0  0  0  0  0  0  0  0
  1  2  1  0  0  0  0
  1 13  1  0  0  0  0
  1 14  1  0  0  0  0
  1 15  1  0  0  0  0
  2  3  2  0  0  0  0
  2  7  1  0  0  0  0
  3  4  1  0  0  0  0
  3 12  1  0  0  0  0
  4  5  2  0  0  0  0
  4 16  1  0  0  0  0
  5  6  1  0  0  0  0
  5 17  1  0  0  0  0
  6  7  2  0  0  0  0
  6  8  1  0  0  0  0
  7 18  1  0  0  0  0
  8  9  1  0  0  0  0
  8 10  1  0  0  0  0
  8 11  1  0  0  0  0
  9 19  1  0  0  0  0
  9 20  1  0  0  0  0
  9 21  1  0  0  0  0
 10 22  1  0  0  0  0
 10 23  1  0  0  0  0
 10 24  1  0  0  0  0
 11 25  1  0  0  0  0
 11 26  1  0  0  0  0
 11 27  1  0  0  0  0
 12 28  1  0  0  0  0
M  END
$$$$
