
 OpenBabel07202215583D

 26 26  0  0  0  0  0  0  0  0999 V2000
    1.1099   -0.0757   -0.0193 C   0  0  0  0  0  0  0  0  0  0  0  0
    2.6281   -0.0890   -0.0002 C   0  0  0  0  0  0  0  0  0  0  0  0
    3.0998   -0.9051    1.0892 O   0  0  0  0  0  0  0  0  0  0  0  0
    4.4661   -0.9389    1.1913 C   0  0  0  0  0  0  0  0  0  0  0  0
    5.2096   -0.3406    0.4238 O   0  0  0  0  0  0  0  0  0  0  0  0
    4.8956   -1.8115    2.3520 C   0  0  0  0  0  0  0  0  0  0  0  0
    6.4202   -1.8750    2.5619 C   0  0  0  0  0  0  0  0  0  0  0  0
    7.1376   -2.4424    1.3370 C   0  0  0  0  0  0  0  0  0  0  0  0
    6.6681   -2.7657    3.6723 O   0  0  0  0  0  0  0  0  0  0  0  0
    6.9767   -1.9448    4.8018 C   0  0  0  0  0  0  0  0  0  0  0  0
    6.8746   -0.5181    4.3288 C   0  0  0  0  0  0  0  0  0  0  0  0
    6.9577   -0.5958    2.9096 O   0  0  0  0  0  0  0  0  0  0  0  0
    0.7380    0.5429   -0.8432 H   0  0  0  0  0  0  0  0  0  0  0  0
    0.7121    0.3212    0.9199 H   0  0  0  0  0  0  0  0  0  0  0  0
    0.7123   -1.0884   -0.1385 H   0  0  0  0  0  0  0  0  0  0  0  0
    2.9937    0.9374    0.1222 H   0  0  0  0  0  0  0  0  0  0  0  0
    2.9961   -0.4950   -0.9500 H   0  0  0  0  0  0  0  0  0  0  0  0
    4.5170   -2.8289    2.1915 H   0  0  0  0  0  0  0  0  0  0  0  0
    4.4181   -1.4240    3.2595 H   0  0  0  0  0  0  0  0  0  0  0  0
    6.7631   -3.4425    1.0923 H   0  0  0  0  0  0  0  0  0  0  0  0
    8.2153   -2.5275    1.5109 H   0  0  0  0  0  0  0  0  0  0  0  0
    7.0244   -1.8059    0.4562 H   0  0  0  0  0  0  0  0  0  0  0  0
    7.9845   -2.1808    5.1601 H   0  0  0  0  0  0  0  0  0  0  0  0
    6.2734   -2.1575    5.6136 H   0  0  0  0  0  0  0  0  0  0  0  0
    7.6704    0.1176    4.7280 H   0  0  0  0  0  0  0  0  0  0  0  0
    5.9128   -0.0734    4.6049 H   0  0  0  0  0  0  0  0  0  0  0  0
  1  2  1  0  0  0  0
  1 13  1  0  0  0  0
  1 14  1  0  0  0  0
  1 15  1  0  0  0  0
  2  3  1  0  0  0  0
  2 16  1  0  0  0  0
  2 17  1  0  0  0  0
  3  4  1  0  0  0  0
  4  5  2  0  0  0  0
  4  6  1  0  0  0  0
  6  7  1  0  0  0  0
  6 18  1  0  0  0  0
  6 19  1  0  0  0  0
  7  8  1  0  0  0  0
  7  9  1  0  0  0  0
  7 12  1  0  0  0  0
  8 20  1  0  0  0  0
  8 21  1  0  0  0  0
  8 22  1  0  0  0  0
  9 10  1  0  0  0  0
 10 11  1  0  0  0  0
 10 23  1  0  0  0  0
 10 24  1  0  0  0  0
 11 12  1  0  0  0  0
 11 25  1  0  0  0  0
 11 26  1  0  0  0  0
M  END
$$$$
