
 OpenBabel07222214433D

 27 26  0  0  0  0  0  0  0  0999 V2000
    0.9469   -0.0894   -0.1116 C   0  0  0  0  0  0  0  0  0  0  0  0
    2.4542   -0.0595   -0.0514 C   0  0  0  0  0  0  0  0  0  0  0  0
    3.1382    0.4569    0.9875 C   0  0  0  0  0  0  0  0  0  0  0  0
    2.4396    1.0440    2.1685 C   0  0  0  0  0  0  0  0  0  0  0  0
    3.3423    1.5922    3.2714 C   0  0  0  0  0  0  0  0  0  0  0  0
    2.5608    2.1747    4.4433 C   0  0  0  0  0  0  0  0  0  0  0  0
    1.2122    2.1957    4.4855 C   0  0  0  0  0  0  0  0  0  0  0  0
    0.4173    2.7486    5.5978 C   0  0  0  0  0  0  0  0  0  0  0  0
   -0.8094    2.7312    5.5629 O   0  0  0  0  0  0  0  0  0  0  0  0
    3.3952    2.7310    5.5624 C   0  0  0  0  0  0  0  0  0  0  0  0
    3.1906   -0.6409   -1.2210 C   0  0  0  0  0  0  0  0  0  0  0  0
    0.4684    0.3489    0.7702 H   0  0  0  0  0  0  0  0  0  0  0  0
    0.5877   -1.1202   -0.1795 H   0  0  0  0  0  0  0  0  0  0  0  0
    0.5877    0.4788   -0.9743 H   0  0  0  0  0  0  0  0  0  0  0  0
    4.2256    0.4546    0.9828 H   0  0  0  0  0  0  0  0  0  0  0  0
    1.8034    0.2605    2.6022 H   0  0  0  0  0  0  0  0  0  0  0  0
    1.8034    1.8627    1.8058 H   0  0  0  0  0  0  0  0  0  0  0  0
    3.9932    2.3685    2.8486 H   0  0  0  0  0  0  0  0  0  0  0  0
    3.9932    0.7864    3.6351 H   0  0  0  0  0  0  0  0  0  0  0  0
    0.5868    1.8009    3.6914 H   0  0  0  0  0  0  0  0  0  0  0  0
    0.9729    3.1702    6.4460 H   0  0  0  0  0  0  0  0  0  0  0  0
    4.4666    2.6331    5.3654 H   0  0  0  0  0  0  0  0  0  0  0  0
    3.1800    2.1971    6.4940 H   0  0  0  0  0  0  0  0  0  0  0  0
    3.1800    3.7960    5.6993 H   0  0  0  0  0  0  0  0  0  0  0  0
    2.4993   -1.0184   -1.9804 H   0  0  0  0  0  0  0  0  0  0  0  0
    3.8220   -1.4754   -0.8986 H   0  0  0  0  0  0  0  0  0  0  0  0
    3.8220    0.1200   -1.6916 H   0  0  0  0  0  0  0  0  0  0  0  0
  1  2  1  0  0  0  0
  1 12  1  0  0  0  0
  1 13  1  0  0  0  0
  1 14  1  0  0  0  0
  2  3  2  0  0  0  0
  2 11  1  0  0  0  0
  3  4  1  0  0  0  0
  3 15  1  0  0  0  0
  4  5  1  0  0  0  0
  4 16  1  0  0  0  0
  4 17  1  0  0  0  0
  5  6  1  0  0  0  0
  5 18  1  0  0  0  0
  5 19  1  0  0  0  0
  6  7  2  0  0  0  0
  6 10  1  0  0  0  0
  7  8  1  0  0  0  0
  7 20  1  0  0  0  0
  8  9  2  0  0  0  0
  8 21  1  0  0  0  0
 10 22  1  0  0  0  0
 10 23  1  0  0  0  0
 10 24  1  0  0  0  0
 11 25  1  0  0  0  0
 11 26  1  0  0  0  0
 11 27  1  0  0  0  0
M  END
$$$$
