
 OpenBabel07222214433D

 17 16  0  0  0  0  0  0  0  0999 V2000
    1.0661    0.0625    0.0456 C   0  0  0  0  0  0  0  0  0  0  0  0
    2.5864    0.0553    0.0478 C   0  0  0  0  0  0  0  0  0  0  0  0
    3.1337   -1.3064    0.4642 C   0  0  0  0  0  0  0  0  0  0  0  0
    4.6601   -1.3278    0.4708 C   0  0  0  0  0  0  0  0  0  0  0  0
    5.0758   -2.6415    0.8725 O   0  0  0  0  0  0  0  0  0  0  0  0
    6.4059   -2.8667    0.9413 C   0  0  0  0  0  0  0  0  0  0  0  0
    6.8951   -3.9384    1.2691 O   0  0  0  0  0  0  0  0  0  0  0  0
    0.6907    1.0456   -0.2550 H   0  0  0  0  0  0  0  0  0  0  0  0
    0.6725   -0.1621    1.0422 H   0  0  0  0  0  0  0  0  0  0  0  0
    0.6725   -0.6810   -0.6548 H   0  0  0  0  0  0  0  0  0  0  0  0
    2.9493    0.8287    0.7346 H   0  0  0  0  0  0  0  0  0  0  0  0
    2.9493    0.3123   -0.9540 H   0  0  0  0  0  0  0  0  0  0  0  0
    2.7609   -2.0864   -0.2121 H   0  0  0  0  0  0  0  0  0  0  0  0
    2.7609   -1.5748    1.4611 H   0  0  0  0  0  0  0  0  0  0  0  0
    5.0462   -0.5866    1.1800 H   0  0  0  0  0  0  0  0  0  0  0  0
    5.0462   -1.1100   -0.5317 H   0  0  0  0  0  0  0  0  0  0  0  0
    7.0106   -1.9877    0.6726 H   0  0  0  0  0  0  0  0  0  0  0  0
  1  2  1  0  0  0  0
  1  8  1  0  0  0  0
  1  9  1  0  0  0  0
  1 10  1  0  0  0  0
  2  3  1  0  0  0  0
  2 11  1  0  0  0  0
  2 12  1  0  0  0  0
  3  4  1  0  0  0  0
  3 13  1  0  0  0  0
  3 14  1  0  0  0  0
  4  5  1  0  0  0  0
  4 15  1  0  0  0  0
  4 16  1  0  0  0  0
  5  6  1  0  0  0  0
  6  7  2  0  0  0  0
  6 17  1  0  0  0  0
M  END
$$$$
