
 OpenBabel07222214433D

 26 26  0  0  0  0  0  0  0  0999 V2000
    0.9732   -0.1176    0.0063 C   0  0  0  0  0  0  0  0  0  0  0  0
    2.4810   -0.2437   -0.0203 C   0  0  0  0  0  0  0  0  0  0  0  0
    3.0366   -0.7461   -1.3709 C   0  0  0  0  0  0  0  0  0  0  0  0
    2.4866   -0.2557   -2.7118 C   0  0  0  0  0  0  0  0  0  0  0  0
    4.5149   -0.5044   -1.3721 C   0  0  0  0  0  0  0  0  0  0  0  0
    5.2300   -1.6650   -1.1911 N   0  0  0  0  0  0  0  0  0  0  0  0
    6.5599   -1.5699   -1.2128 C   0  0  0  0  0  0  0  0  0  0  0  0
    7.1838   -0.3508   -1.4068 C   0  0  0  0  0  0  0  0  0  0  0  0
    6.4905    0.8057   -1.5758 N   0  0  0  0  0  0  0  0  0  0  0  0
    5.1360    0.7571   -1.5577 C   0  0  0  0  0  0  0  0  0  0  0  0
    4.6095    2.0014   -1.7436 O   0  0  0  0  0  0  0  0  0  0  0  0
    3.2464    2.4084   -1.8542 C   0  0  0  0  0  0  0  0  0  0  0  0
    0.6380    0.2345    0.9862 H   0  0  0  0  0  0  0  0  0  0  0  0
    0.5114   -1.0873   -0.1951 H   0  0  0  0  0  0  0  0  0  0  0  0
    0.6187    0.6038   -0.7342 H   0  0  0  0  0  0  0  0  0  0  0  0
    2.7947   -0.9397    0.7725 H   0  0  0  0  0  0  0  0  0  0  0  0
    2.9356    0.7004    0.3013 H   0  0  0  0  0  0  0  0  0  0  0  0
    2.8397   -1.8311   -1.3705 H   0  0  0  0  0  0  0  0  0  0  0  0
    3.1476    0.4838   -3.1507 H   0  0  0  0  0  0  0  0  0  0  0  0
    1.4749    0.1448   -2.6575 H   0  0  0  0  0  0  0  0  0  0  0  0
    2.5383   -1.0111   -3.5007 H   0  0  0  0  0  0  0  0  0  0  0  0
    7.1172   -2.4886   -1.0737 H   0  0  0  0  0  0  0  0  0  0  0  0
    8.2594   -0.2787   -1.4274 H   0  0  0  0  0  0  0  0  0  0  0  0
    3.1767    3.4934   -1.7367 H   0  0  0  0  0  0  0  0  0  0  0  0
    2.5943    1.9929   -1.0946 H   0  0  0  0  0  0  0  0  0  0  0  0
    2.8241    2.2532   -2.8526 H   0  0  0  0  0  0  0  0  0  0  0  0
  1  2  1  0  0  0  0
  1 13  1  0  0  0  0
  1 14  1  0  0  0  0
  1 15  1  0  0  0  0
  2  3  1  0  0  0  0
  2 16  1  0  0  0  0
  2 17  1  0  0  0  0
  3  4  1  0  0  0  0
  3  5  1  0  0  0  0
  3 18  1  0  0  0  0
  4 19  1  0  0  0  0
  4 20  1  0  0  0  0
  4 21  1  0  0  0  0
  5  6  2  0  0  0  0
  5 10  1  0  0  0  0
  6  7  1  0  0  0  0
  7  8  2  0  0  0  0
  7 22  1  0  0  0  0
  8  9  1  0  0  0  0
  8 23  1  0  0  0  0
  9 10  2  0  0  0  0
 10 11  1  0  0  0  0
 11 12  1  0  0  0  0
 12 24  1  0  0  0  0
 12 25  1  0  0  0  0
 12 26  1  0  0  0  0
M  END
$$$$
