
 OpenBabel07222214433D

 29 28  0  0  0  0  0  0  0  0999 V2000
    0.9280    0.0974   -0.0122 C   0  0  0  0  0  0  0  0  0  0  0  0
    2.4447    0.0891   -0.0106 C   0  0  0  0  0  0  0  0  0  0  0  0
    2.9696   -1.3152    0.2601 C   0  0  0  0  0  0  0  0  0  0  0  0
    4.4918   -1.3287    0.2627 C   0  0  0  0  0  0  0  0  0  0  0  0
    5.0128   -2.7346    0.5338 C   0  0  0  0  0  0  0  0  0  0  0  0
    6.5370   -2.7445    0.5357 C   0  0  0  0  0  0  0  0  0  0  0  0
    7.0738   -4.1434    0.8054 C   0  0  0  0  0  0  0  0  0  0  0  0
    8.5981   -4.1629    0.8092 C   0  0  0  0  0  0  0  0  0  0  0  0
    9.0127   -5.5106    1.0690 O   0  0  0  0  0  0  0  0  0  0  0  0
   10.3425   -5.7393    1.1131 C   0  0  0  0  0  0  0  0  0  0  0  0
   10.8328   -6.8394    1.3252 O   0  0  0  0  0  0  0  0  0  0  0  0
    0.5540    1.1061   -0.2067 H   0  0  0  0  0  0  0  0  0  0  0  0
    0.5384   -0.2349    0.9553 H   0  0  0  0  0  0  0  0  0  0  0  0
    0.5384   -0.5708   -0.7868 H   0  0  0  0  0  0  0  0  0  0  0  0
    2.8149    0.7806    0.7553 H   0  0  0  0  0  0  0  0  0  0  0  0
    2.8149    0.4463   -0.9787 H   0  0  0  0  0  0  0  0  0  0  0  0
    2.5954   -2.0058   -0.5056 H   0  0  0  0  0  0  0  0  0  0  0  0
    2.5954   -1.6716    1.2278 H   0  0  0  0  0  0  0  0  0  0  0  0
    4.8673   -0.6395    1.0291 H   0  0  0  0  0  0  0  0  0  0  0  0
    4.8673   -0.9738   -0.7049 H   0  0  0  0  0  0  0  0  0  0  0  0
    4.6355   -3.4229   -0.2326 H   0  0  0  0  0  0  0  0  0  0  0  0
    4.6355   -3.0886    1.5012 H   0  0  0  0  0  0  0  0  0  0  0  0
    6.9064   -2.0516    1.3014 H   0  0  0  0  0  0  0  0  0  0  0  0
    6.9064   -2.3860   -0.4327 H   0  0  0  0  0  0  0  0  0  0  0  0
    6.6988   -4.8450    0.0493 H   0  0  0  0  0  0  0  0  0  0  0  0
    6.6988   -4.5136    1.7682 H   0  0  0  0  0  0  0  0  0  0  0  0
    8.9826   -3.4994    1.5926 H   0  0  0  0  0  0  0  0  0  0  0  0
    8.9826   -3.8382   -0.1648 H   0  0  0  0  0  0  0  0  0  0  0  0
   10.9457   -4.8359    0.9389 H   0  0  0  0  0  0  0  0  0  0  0  0
  1  2  1  0  0  0  0
  1 12  1  0  0  0  0
  1 13  1  0  0  0  0
  1 14  1  0  0  0  0
  2  3  1  0  0  0  0
  2 15  1  0  0  0  0
  2 16  1  0  0  0  0
  3  4  1  0  0  0  0
  3 17  1  0  0  0  0
  3 18  1  0  0  0  0
  4  5  1  0  0  0  0
  4 19  1  0  0  0  0
  4 20  1  0  0  0  0
  5  6  1  0  0  0  0
  5 21  1  0  0  0  0
  5 22  1  0  0  0  0
  6  7  1  0  0  0  0
  6 23  1  0  0  0  0
  6 24  1  0  0  0  0
  7  8  1  0  0  0  0
  7 25  1  0  0  0  0
  7 26  1  0  0  0  0
  8  9  1  0  0  0  0
  8 27  1  0  0  0  0
  8 28  1  0  0  0  0
  9 10  1  0  0  0  0
 10 11  2  0  0  0  0
 10 29  1  0  0  0  0
M  END
$$$$
