
 OpenBabel07202215583D

 15 15  0  0  0  0  0  0  0  0999 V2000
    1.1453   -0.0208    0.0588 C   0  0  0  0  0  0  0  0  0  0  0  0
    2.6675   -0.0390    0.0572 C   0  0  0  0  0  0  0  0  0  0  0  0
    3.0984   -1.1614   -0.7082 O   0  0  0  0  0  0  0  0  0  0  0  0
    4.4216   -1.3318   -0.7687 C   0  0  0  0  0  0  0  0  0  0  0  0
    5.2283   -1.1514    0.2524 N   0  0  0  0  0  0  0  0  0  0  0  0
    6.5222   -1.4814   -0.1211 C   0  0  0  0  0  0  0  0  0  0  0  0
    6.6846   -1.8640   -1.4352 C   0  0  0  0  0  0  0  0  0  0  0  0
    5.1609   -1.8760   -2.2178 S   0  0  0  0  0  0  0  0  0  0  0  0
    0.7632    0.8570    0.5886 H   0  0  0  0  0  0  0  0  0  0  0  0
    0.7469   -0.9201    0.5406 H   0  0  0  0  0  0  0  0  0  0  0  0
    0.7529   -0.0098   -0.9641 H   0  0  0  0  0  0  0  0  0  0  0  0
    3.0311   -0.0899    1.0896 H   0  0  0  0  0  0  0  0  0  0  0  0
    3.0337    0.8814   -0.4133 H   0  0  0  0  0  0  0  0  0  0  0  0
    7.3221   -1.4224    0.6079 H   0  0  0  0  0  0  0  0  0  0  0  0
    7.5918   -2.1449   -1.9519 H   0  0  0  0  0  0  0  0  0  0  0  0
  1  2  1  0  0  0  0
  1  9  1  0  0  0  0
  1 10  1  0  0  0  0
  1 11  1  0  0  0  0
  2  3  1  0  0  0  0
  2 12  1  0  0  0  0
  2 13  1  0  0  0  0
  3  4  1  0  0  0  0
  4  5  2  0  0  0  0
  4  8  1  0  0  0  0
  5  6  1  0  0  0  0
  6  7  2  0  0  0  0
  6 14  1  0  0  0  0
  7  8  1  0  0  0  0
  7 15  1  0  0  0  0
M  END
$$$$
