
 OpenBabel07202215583D

 18 17  0  0  0  0  0  0  0  0999 V2000
    1.0591   -0.0467   -0.0520 C   0  0  0  0  0  0  0  0  0  0  0  0
    2.5763   -0.0379   -0.0542 C   0  0  0  0  0  0  0  0  0  0  0  0
    3.1387    1.3415   -0.3958 C   0  0  0  0  0  0  0  0  0  0  0  0
    4.6518    1.3154   -0.3893 C   0  0  0  0  0  0  0  0  0  0  0  0
    5.3218    0.3189   -0.1426 O   0  0  0  0  0  0  0  0  0  0  0  0
    5.3615    2.6238   -0.7134 C   0  0  0  0  0  0  0  0  0  0  0  0
    4.6985    3.6250   -0.9613 O   0  0  0  0  0  0  0  0  0  0  0  0
    6.8651    2.6137   -0.7109 C   0  0  0  0  0  0  0  0  0  0  0  0
    0.6884   -1.0465    0.1956 H   0  0  0  0  0  0  0  0  0  0  0  0
    0.6659    0.2289   -1.0352 H   0  0  0  0  0  0  0  0  0  0  0  0
    0.6659    0.6559    0.6890 H   0  0  0  0  0  0  0  0  0  0  0  0
    2.9407   -0.7777   -0.7776 H   0  0  0  0  0  0  0  0  0  0  0  0
    2.9407   -0.3546    0.9309 H   0  0  0  0  0  0  0  0  0  0  0  0
    2.7948    2.0764    0.3406 H   0  0  0  0  0  0  0  0  0  0  0  0
    2.7948    1.6478   -1.3901 H   0  0  0  0  0  0  0  0  0  0  0  0
    7.2702    1.6292   -0.4671 H   0  0  0  0  0  0  0  0  0  0  0  0
    7.2281    3.3244    0.0360 H   0  0  0  0  0  0  0  0  0  0  0  0
    7.2281    2.8937   -1.7031 H   0  0  0  0  0  0  0  0  0  0  0  0
  1  2  1  0  0  0  0
  1  9  1  0  0  0  0
  1 10  1  0  0  0  0
  1 11  1  0  0  0  0
  2  3  1  0  0  0  0
  2 12  1  0  0  0  0
  2 13  1  0  0  0  0
  3  4  1  0  0  0  0
  3 14  1  0  0  0  0
  3 15  1  0  0  0  0
  4  5  2  0  0  0  0
  4  6  1  0  0  0  0
  6  7  2  0  0  0  0
  6  8  1  0  0  0  0
  8 16  1  0  0  0  0
  8 17  1  0  0  0  0
  8 18  1  0  0  0  0
M  END
$$$$
