
 OpenBabel07122215493D

 29 28  0  0  0  0  0  0  0  0999 V2000
    0.9897    0.0553   -0.0941 C   0  0  0  0  0  0  0  0  0  0  0  0
    2.5057    0.0567   -0.0902 C   0  0  0  0  0  0  0  0  0  0  0  0
    3.0361    0.5335    1.2537 C   0  0  0  0  0  0  0  0  0  0  0  0
    4.5592    0.5334    1.2535 C   0  0  0  0  0  0  0  0  0  0  0  0
    5.0741    1.0111    2.5998 C   0  0  0  0  0  0  0  0  0  0  0  0
    6.5719    1.0302    2.6536 C   0  0  0  0  0  0  0  0  0  0  0  0
    7.2408    1.4188    3.7488 C   0  0  0  0  0  0  0  0  0  0  0  0
    6.5399    1.8630    5.0010 C   0  0  0  0  0  0  0  0  0  0  0  0
    7.5189    2.2508    6.0941 C   0  0  0  0  0  0  0  0  0  0  0  0
    6.7808    2.6887    7.3283 C   0  0  0  0  0  0  0  0  0  0  0  0
    7.3590    3.0515    8.3507 O   0  0  0  0  0  0  0  0  0  0  0  0
    0.6147   -0.2880   -1.0618 H   0  0  0  0  0  0  0  0  0  0  0  0
    0.6010    1.0620    0.0900 H   0  0  0  0  0  0  0  0  0  0  0  0
    0.6010   -0.6102    0.6833 H   0  0  0  0  0  0  0  0  0  0  0  0
    2.8753    0.7105   -0.8886 H   0  0  0  0  0  0  0  0  0  0  0  0
    2.8753   -0.9541   -0.2980 H   0  0  0  0  0  0  0  0  0  0  0  0
    2.6647   -0.1182    2.0548 H   0  0  0  0  0  0  0  0  0  0  0  0
    2.6647    1.5444    1.4649 H   0  0  0  0  0  0  0  0  0  0  0  0
    4.9321    1.1890    0.4570 H   0  0  0  0  0  0  0  0  0  0  0  0
    4.9321   -0.4775    1.0483 H   0  0  0  0  0  0  0  0  0  0  0  0
    4.6900    0.3483    3.3855 H   0  0  0  0  0  0  0  0  0  0  0  0
    4.6900    2.0208    2.7921 H   0  0  0  0  0  0  0  0  0  0  0  0
    7.1288    0.7175    1.7724 H   0  0  0  0  0  0  0  0  0  0  0  0
    8.3286    1.4114    3.7282 H   0  0  0  0  0  0  0  0  0  0  0  0
    5.8926    1.0538    5.3640 H   0  0  0  0  0  0  0  0  0  0  0  0
    5.8926    2.7200    4.7728 H   0  0  0  0  0  0  0  0  0  0  0  0
    8.1501    3.0798    5.7582 H   0  0  0  0  0  0  0  0  0  0  0  0
    8.1501    1.3956    6.3558 H   0  0  0  0  0  0  0  0  0  0  0  0
    5.6785    2.6734    7.2850 H   0  0  0  0  0  0  0  0  0  0  0  0
  1  2  1  0  0  0  0
  1 12  1  0  0  0  0
  1 13  1  0  0  0  0
  1 14  1  0  0  0  0
  2  3  1  0  0  0  0
  2 15  1  0  0  0  0
  2 16  1  0  0  0  0
  3  4  1  0  0  0  0
  3 17  1  0  0  0  0
  3 18  1  0  0  0  0
  4  5  1  0  0  0  0
  4 19  1  0  0  0  0
  4 20  1  0  0  0  0
  5  6  1  0  0  0  0
  5 21  1  0  0  0  0
  5 22  1  0  0  0  0
  6  7  2  0  0  0  0
  6 23  1  0  0  0  0
  7  8  1  0  0  0  0
  7 24  1  0  0  0  0
  8  9  1  0  0  0  0
  8 25  1  0  0  0  0
  8 26  1  0  0  0  0
  9 10  1  0  0  0  0
  9 27  1  0  0  0  0
  9 28  1  0  0  0  0
 10 11  2  0  0  0  0
 10 29  1  0  0  0  0
M  END
$$$$
