
 OpenBabel07222214433D

 19 19  0  0  0  0  0  0  0  0999 V2000
    0.9493    0.1094    0.0083 C   0  0  0  0  0  0  0  0  0  0  0  0
    2.4770    0.0655    0.0275 C   0  0  0  0  0  0  0  0  0  0  0  0
    2.9991   -1.2856    0.5409 C   0  0  0  0  0  0  0  0  0  0  0  0
    3.2362   -1.0024    2.3121 S   0  0  0  0  0  0  0  0  0  0  0  0
    3.3868    0.7072    2.0209 C   0  0  0  0  0  0  0  0  0  0  0  0
    2.9990    1.1691    0.8756 N   0  0  0  0  0  0  0  0  0  0  0  0
    3.9821    1.5507    3.1002 C   0  0  0  0  0  0  0  0  0  0  0  0
    4.3332   -1.6667   -0.0877 C   0  0  0  0  0  0  0  0  0  0  0  0
    0.5564   -0.6752   -0.6486 H   0  0  0  0  0  0  0  0  0  0  0  0
    0.5877    1.0728   -0.3651 H   0  0  0  0  0  0  0  0  0  0  0  0
    0.5254   -0.0425    1.0060 H   0  0  0  0  0  0  0  0  0  0  0  0
    2.8233    0.2327   -1.0006 H   0  0  0  0  0  0  0  0  0  0  0  0
    2.2783   -2.0941    0.3855 H   0  0  0  0  0  0  0  0  0  0  0  0
    4.2758    0.9462    3.9635 H   0  0  0  0  0  0  0  0  0  0  0  0
    3.2552    2.2991    3.4264 H   0  0  0  0  0  0  0  0  0  0  0  0
    4.8709    2.0620    2.7184 H   0  0  0  0  0  0  0  0  0  0  0  0
    5.0740   -0.8624   -0.0139 H   0  0  0  0  0  0  0  0  0  0  0  0
    4.1936   -1.8882   -1.1512 H   0  0  0  0  0  0  0  0  0  0  0  0
    4.7491   -2.5639    0.3833 H   0  0  0  0  0  0  0  0  0  0  0  0
  1  2  1  0  0  0  0
  1  9  1  0  0  0  0
  1 10  1  0  0  0  0
  1 11  1  0  0  0  0
  2  3  1  0  0  0  0
  2  6  1  0  0  0  0
  2 12  1  0  0  0  0
  3  4  1  0  0  0  0
  3  8  1  0  0  0  0
  3 13  1  0  0  0  0
  4  5  1  0  0  0  0
  5  6  2  0  0  0  0
  5  7  1  0  0  0  0
  7 14  1  0  0  0  0
  7 15  1  0  0  0  0
  7 16  1  0  0  0  0
  8 17  1  0  0  0  0
  8 18  1  0  0  0  0
  8 19  1  0  0  0  0
M  END
$$$$
