
 OpenBabel07122215493D

 13 13  0  0  0  0  0  0  0  0999 V2000
    2.4418    0.2378   -0.0086 C   0  0  0  0  0  0  0  0  0  0  0  0
    0.9544    0.0846    0.0005 C   0  0  0  0  0  0  0  0  0  0  0  0
    0.1129    1.1926    0.0045 C   0  0  0  0  0  0  0  0  0  0  0  0
   -1.2377    1.0924    0.0034 N   0  0  0  0  0  0  0  0  0  0  0  0
   -1.7197   -0.1696   -0.0016 C   0  0  0  0  0  0  0  0  0  0  0  0
   -0.8921   -1.2787   -0.0031 C   0  0  0  0  0  0  0  0  0  0  0  0
    0.4570   -1.1777   -0.0020 N   0  0  0  0  0  0  0  0  0  0  0  0
    2.7400    1.2910   -0.0041 H   0  0  0  0  0  0  0  0  0  0  0  0
    2.8577   -0.2303   -0.9061 H   0  0  0  0  0  0  0  0  0  0  0  0
    2.8723   -0.2426    0.8753 H   0  0  0  0  0  0  0  0  0  0  0  0
    0.5024    2.2049    0.0071 H   0  0  0  0  0  0  0  0  0  0  0  0
   -2.7989   -0.2673   -0.0051 H   0  0  0  0  0  0  0  0  0  0  0  0
   -1.2937   -2.2853   -0.0065 H   0  0  0  0  0  0  0  0  0  0  0  0
  1  2  1  0  0  0  0
  1  8  1  0  0  0  0
  1  9  1  0  0  0  0
  1 10  1  0  0  0  0
  2  3  1  0  0  0  0
  2  7  2  0  0  0  0
  3  4  2  0  0  0  0
  3 11  1  0  0  0  0
  4  5  1  0  0  0  0
  5  6  2  0  0  0  0
  5 12  1  0  0  0  0
  6  7  1  0  0  0  0
  6 13  1  0  0  0  0
M  END
$$$$
