
 OpenBabel07202215583D

 27 28  0  0  1  0  0  0  0  0999 V2000
    0.9671    0.0045    0.0216 C   0  0  0  0  0  0  0  0  0  0  0  0
    2.4899   -0.1281    0.0323 C   0  0  0  0  0  0  0  0  0  0  0  0
    2.8032   -1.6250    0.0797 C   0  0  0  0  0  0  0  0  0  0  0  0
    3.1972    0.6347   -1.1398 C   0  0  2  0  0  0  0  0  0  0  0  0
    4.6687    0.1905   -1.2660 C   0  0  0  0  0  0  0  0  0  0  0  0
    5.3155    0.7803    0.0020 C   0  0  0  0  0  0  0  0  0  0  0  0
    4.1801    1.6121    0.6339 C   0  0  1  0  0  0  0  0  0  0  0  0
    4.6450    2.6933    1.5810 C   0  0  0  0  0  0  0  0  0  0  0  0
    3.3996    2.0691   -0.5990 C   0  0  0  0  0  0  0  0  0  0  0  0
    3.0866    0.6916    1.1786 C   0  0  0  0  0  0  0  0  0  0  0  0
    2.6150    0.7577    2.3111 O   0  0  0  0  0  0  0  0  0  0  0  0
    0.6265    1.0410    0.0686 H   0  0  0  0  0  0  0  0  0  0  0  0
    0.5421   -0.5147    0.8917 H   0  0  0  0  0  0  0  0  0  0  0  0
    0.5468   -0.4669   -0.8735 H   0  0  0  0  0  0  0  0  0  0  0  0
    3.8654   -1.8593    0.1754 H   0  0  0  0  0  0  0  0  0  0  0  0
    2.4283   -2.1059   -0.8332 H   0  0  0  0  0  0  0  0  0  0  0  0
    2.3171   -2.1059    0.9346 H   0  0  0  0  0  0  0  0  0  0  0  0
    2.6490    0.5927   -2.0835 H   0  0  0  0  0  0  0  0  0  0  0  0
    5.1254    0.6225   -2.1636 H   0  0  0  0  0  0  0  0  0  0  0  0
    4.8095   -0.8895   -1.3469 H   0  0  0  0  0  0  0  0  0  0  0  0
    6.1608    1.4147   -0.2918 H   0  0  0  0  0  0  0  0  0  0  0  0
    5.6911   -0.0008    0.6712 H   0  0  0  0  0  0  0  0  0  0  0  0
    5.3146    3.3997    1.0792 H   0  0  0  0  0  0  0  0  0  0  0  0
    5.1870    2.2627    2.4313 H   0  0  0  0  0  0  0  0  0  0  0  0
    3.8004    3.2597    1.9863 H   0  0  0  0  0  0  0  0  0  0  0  0
    3.9956    2.7047   -1.2640 H   0  0  0  0  0  0  0  0  0  0  0  0
    2.4632    2.5818   -0.3541 H   0  0  0  0  0  0  0  0  0  0  0  0
  1  2  1  0  0  0  0
  1 12  1  0  0  0  0
  1 13  1  0  0  0  0
  1 14  1  0  0  0  0
  2  4  1  0  0  0  0
  2 10  1  0  0  0  0
  2  3  1  0  0  0  0
  3 15  1  0  0  0  0
  3 16  1  0  0  0  0
  3 17  1  0  0  0  0
  4  5  1  0  0  0  0
  4  9  1  0  0  0  0
  4 18  1  6  0  0  0
  5  6  1  0  0  0  0
  5 19  1  0  0  0  0
  5 20  1  0  0  0  0
  6  7  1  0  0  0  0
  6 21  1  0  0  0  0
  6 22  1  0  0  0  0
  7  9  1  0  0  0  0
  7 10  1  0  0  0  0
  7  8  1  1  0  0  0
  8 23  1  0  0  0  0
  8 24  1  0  0  0  0
  8 25  1  0  0  0  0
  9 26  1  0  0  0  0
  9 27  1  0  0  0  0
 10 11  2  0  0  0  0
M  END
$$$$
