
 OpenBabel07122215493D

 29 30  0  0  0  0  0  0  0  0999 V2000
    1.3710   -0.2143    0.0142 C   0  0  0  0  0  0  0  0  0  0  0  0
    0.8513    1.0783    0.0032 C   0  0  0  0  0  0  0  0  0  0  0  0
   -0.5335    1.2786    0.0179 C   0  0  0  0  0  0  0  0  0  0  0  0
   -1.4155    0.1863   -0.0434 C   0  0  0  0  0  0  0  0  0  0  0  0
   -0.8734   -1.1067   -0.0148 C   0  0  0  0  0  0  0  0  0  0  0  0
    0.5078   -1.3061    0.0181 C   0  0  0  0  0  0  0  0  0  0  0  0
   -2.9075    0.4215   -0.1986 C   0  0  0  0  0  0  0  0  0  0  0  0
   -3.6111   -0.8253   -0.3443 O   0  0  0  0  0  0  0  0  0  0  0  0
   -4.9470   -0.7238   -0.5125 C   0  0  0  0  0  0  0  0  0  0  0  0
   -5.5773    0.3223   -0.6327 O   0  0  0  0  0  0  0  0  0  0  0  0
   -5.5976   -2.0574   -0.5826 C   0  0  0  0  0  0  0  0  0  0  0  0
   -6.6508   -2.2353   -1.4958 C   0  0  0  0  0  0  0  0  0  0  0  0
   -7.4224   -3.4020   -1.4711 C   0  0  0  0  0  0  0  0  0  0  0  0
   -7.1093   -4.4250   -0.5779 C   0  0  0  0  0  0  0  0  0  0  0  0
   -6.0444   -4.2718    0.3128 C   0  0  0  0  0  0  0  0  0  0  0  0
   -5.2958   -3.0889    0.3152 C   0  0  0  0  0  0  0  0  0  0  0  0
   -4.2947   -2.9335    1.2323 O   0  0  0  0  0  0  0  0  0  0  0  0
    2.4461   -0.3725    0.0250 H   0  0  0  0  0  0  0  0  0  0  0  0
    1.5260    1.9304   -0.0308 H   0  0  0  0  0  0  0  0  0  0  0  0
   -0.9166    2.2962    0.0610 H   0  0  0  0  0  0  0  0  0  0  0  0
   -1.5275   -1.9756   -0.0302 H   0  0  0  0  0  0  0  0  0  0  0  0
    0.9057   -2.3169    0.0260 H   0  0  0  0  0  0  0  0  0  0  0  0
   -3.0626    1.0213   -1.1043 H   0  0  0  0  0  0  0  0  0  0  0  0
   -3.2854    0.9616    0.6778 H   0  0  0  0  0  0  0  0  0  0  0  0
   -6.8867   -1.4564   -2.2183 H   0  0  0  0  0  0  0  0  0  0  0  0
   -8.2823   -3.5034   -2.1305 H   0  0  0  0  0  0  0  0  0  0  0  0
   -7.7017   -5.3381   -0.5704 H   0  0  0  0  0  0  0  0  0  0  0  0
   -5.8376   -5.0700    1.0203 H   0  0  0  0  0  0  0  0  0  0  0  0
   -4.1683   -3.7596    1.7255 H   0  0  0  0  0  0  0  0  0  0  0  0
  1  2  2  0  0  0  0
  1  6  1  0  0  0  0
  1 18  1  0  0  0  0
  2  3  1  0  0  0  0
  2 19  1  0  0  0  0
  3  4  2  0  0  0  0
  3 20  1  0  0  0  0
  4  5  1  0  0  0  0
  4  7  1  0  0  0  0
  5  6  2  0  0  0  0
  5 21  1  0  0  0  0
  6 22  1  0  0  0  0
  7  8  1  0  0  0  0
  7 23  1  0  0  0  0
  7 24  1  0  0  0  0
  8  9  1  0  0  0  0
  9 10  2  0  0  0  0
  9 11  1  0  0  0  0
 11 12  2  0  0  0  0
 11 16  1  0  0  0  0
 12 13  1  0  0  0  0
 12 25  1  0  0  0  0
 13 14  2  0  0  0  0
 13 26  1  0  0  0  0
 14 15  1  0  0  0  0
 14 27  1  0  0  0  0
 15 16  2  0  0  0  0
 15 28  1  0  0  0  0
 16 17  1  0  0  0  0
 17 29  1  0  0  0  0
M  END
$$$$
