
 OpenBabel07222214443D

 28 28  0  0  0  0  0  0  0  0999 V2000
    0.9292   -0.0524   -0.0031 C   0  0  0  0  0  0  0  0  0  0  0  0
    2.4735   -0.0700   -0.0077 C   0  0  0  0  0  0  0  0  0  0  0  0
    2.9881    0.3158   -1.4054 C   0  0  0  0  0  0  0  0  0  0  0  0
    2.9439    1.0096    0.9944 C   0  0  0  0  0  0  0  0  0  0  0  0
    2.9631   -1.4734    0.3734 C   0  0  0  0  0  0  0  0  0  0  0  0
    2.4880   -2.6118   -0.3049 C   0  0  0  0  0  0  0  0  0  0  0  0
    2.8094   -3.8982    0.1404 C   0  0  0  0  0  0  0  0  0  0  0  0
    3.6710   -4.0800    1.2175 C   0  0  0  0  0  0  0  0  0  0  0  0
    4.1854   -2.9618    1.8695 C   0  0  0  0  0  0  0  0  0  0  0  0
    3.8388   -1.6808    1.4459 C   0  0  0  0  0  0  0  0  0  0  0  0
    3.9532   -5.3765    1.5485 O   0  0  0  0  0  0  0  0  0  0  0  0
    4.9539   -5.5501    2.5469 C   0  0  0  0  0  0  0  0  0  0  0  0
    0.5427    0.9452   -0.2374 H   0  0  0  0  0  0  0  0  0  0  0  0
    0.5375   -0.3433    0.9794 H   0  0  0  0  0  0  0  0  0  0  0  0
    0.5028   -0.7414   -0.7405 H   0  0  0  0  0  0  0  0  0  0  0  0
    2.6444    1.3187   -1.6855 H   0  0  0  0  0  0  0  0  0  0  0  0
    2.6365   -0.3767   -2.1782 H   0  0  0  0  0  0  0  0  0  0  0  0
    4.0838    0.3177   -1.4383 H   0  0  0  0  0  0  0  0  0  0  0  0
    2.5543    1.9994    0.7371 H   0  0  0  0  0  0  0  0  0  0  0  0
    4.0376    1.0898    1.0148 H   0  0  0  0  0  0  0  0  0  0  0  0
    2.6029    0.7789    2.0120 H   0  0  0  0  0  0  0  0  0  0  0  0
    1.8426   -2.5128   -1.1737 H   0  0  0  0  0  0  0  0  0  0  0  0
    2.3719   -4.7616   -0.3573 H   0  0  0  0  0  0  0  0  0  0  0  0
    4.8439   -3.0419    2.7248 H   0  0  0  0  0  0  0  0  0  0  0  0
    4.2678   -0.8532    2.0048 H   0  0  0  0  0  0  0  0  0  0  0  0
    5.1616   -6.6186    2.6397 H   0  0  0  0  0  0  0  0  0  0  0  0
    4.5965   -5.1898    3.5179 H   0  0  0  0  0  0  0  0  0  0  0  0
    5.8905   -5.0539    2.2653 H   0  0  0  0  0  0  0  0  0  0  0  0
  1  2  1  0  0  0  0
  1 13  1  0  0  0  0
  1 14  1  0  0  0  0
  1 15  1  0  0  0  0
  2  3  1  0  0  0  0
  2  4  1  0  0  0  0
  2  5  1  0  0  0  0
  3 16  1  0  0  0  0
  3 17  1  0  0  0  0
  3 18  1  0  0  0  0
  4 19  1  0  0  0  0
  4 20  1  0  0  0  0
  4 21  1  0  0  0  0
  5  6  2  0  0  0  0
  5 10  1  0  0  0  0
  6  7  1  0  0  0  0
  6 22  1  0  0  0  0
  7  8  2  0  0  0  0
  7 23  1  0  0  0  0
  8  9  1  0  0  0  0
  8 11  1  0  0  0  0
  9 10  2  0  0  0  0
  9 24  1  0  0  0  0
 10 25  1  0  0  0  0
 11 12  1  0  0  0  0
 12 26  1  0  0  0  0
 12 27  1  0  0  0  0
 12 28  1  0  0  0  0
M  END
$$$$
