
 OpenBabel07222214433D

 18 17  0  0  0  0  0  0  0  0999 V2000
    1.0425    0.0649   -0.0601 C   0  0  0  0  0  0  0  0  0  0  0  0
    2.5621    0.0517   -0.0618 C   0  0  0  0  0  0  0  0  0  0  0  0
    3.0949   -1.3654   -0.2571 C   0  0  0  0  0  0  0  0  0  0  0  0
    4.6197   -1.3920   -0.2616 C   0  0  0  0  0  0  0  0  0  0  0  0
    5.1417   -2.8083   -0.4586 C   0  0  0  0  0  0  0  0  0  0  0  0
    6.5622   -2.8049   -0.4499 O   0  0  0  0  0  0  0  0  0  0  0  0
    0.6706    1.0841    0.0803 H   0  0  0  0  0  0  0  0  0  0  0  0
    0.6481   -0.5575    0.7496 H   0  0  0  0  0  0  0  0  0  0  0  0
    0.6482   -0.3154   -1.0079 H   0  0  0  0  0  0  0  0  0  0  0  0
    2.9297    0.4622    0.8858 H   0  0  0  0  0  0  0  0  0  0  0  0
    2.9296    0.7032   -0.8632 H   0  0  0  0  0  0  0  0  0  0  0  0
    2.7181   -1.7722   -1.2036 H   0  0  0  0  0  0  0  0  0  0  0  0
    2.7187   -2.0130    0.5444 H   0  0  0  0  0  0  0  0  0  0  0  0
    5.0122   -0.9853    0.6788 H   0  0  0  0  0  0  0  0  0  0  0  0
    5.0090   -0.7428   -1.0557 H   0  0  0  0  0  0  0  0  0  0  0  0
    4.8003   -3.2281   -1.4104 H   0  0  0  0  0  0  0  0  0  0  0  0
    4.7988   -3.4640    0.3477 H   0  0  0  0  0  0  0  0  0  0  0  0
    6.8570   -2.2317   -1.1767 H   0  0  0  0  0  0  0  0  0  0  0  0
  1  2  1  0  0  0  0
  1  7  1  0  0  0  0
  1  8  1  0  0  0  0
  1  9  1  0  0  0  0
  2  3  1  0  0  0  0
  2 10  1  0  0  0  0
  2 11  1  0  0  0  0
  3  4  1  0  0  0  0
  3 12  1  0  0  0  0
  3 13  1  0  0  0  0
  4  5  1  0  0  0  0
  4 14  1  0  0  0  0
  4 15  1  0  0  0  0
  5  6  1  0  0  0  0
  5 16  1  0  0  0  0
  5 17  1  0  0  0  0
  6 18  1  0  0  0  0
M  END
$$$$
