
 OpenBabel07202215583D

 27 27  0  0  0  0  0  0  0  0999 V2000
    1.0764   -0.0310    0.1046 C   0  0  0  0  0  0  0  0  0  0  0  0
    2.5797   -0.0200    0.1418 C   0  0  0  0  0  0  0  0  0  0  0  0
    3.2561    1.1272    0.3584 C   0  0  0  0  0  0  0  0  0  0  0  0
    3.3226   -1.2653   -0.1619 C   0  0  0  0  0  0  0  0  0  0  0  0
    4.4846   -1.6317    0.5402 C   0  0  0  0  0  0  0  0  0  0  0  0
    5.2617   -2.7386    0.1505 C   0  0  0  0  0  0  0  0  0  0  0  0
    4.7999   -3.5773   -0.8790 C   0  0  0  0  0  0  0  0  0  0  0  0
    3.6410   -3.2253   -1.5716 C   0  0  0  0  0  0  0  0  0  0  0  0
    2.9158   -2.0827   -1.2213 C   0  0  0  0  0  0  0  0  0  0  0  0
    5.5065   -4.7161   -1.1362 O   0  0  0  0  0  0  0  0  0  0  0  0
    5.0487   -5.6171   -2.1250 C   0  0  0  0  0  0  0  0  0  0  0  0
    6.4496   -2.8608    0.8387 O   0  0  0  0  0  0  0  0  0  0  0  0
    7.4060   -3.7851    0.3204 C   0  0  0  0  0  0  0  0  0  0  0  0
    0.6589    0.9602    0.3181 H   0  0  0  0  0  0  0  0  0  0  0  0
    0.6760   -0.7219    0.8536 H   0  0  0  0  0  0  0  0  0  0  0  0
    0.6963   -0.3209   -0.8802 H   0  0  0  0  0  0  0  0  0  0  0  0
    2.7354    2.0617    0.5331 H   0  0  0  0  0  0  0  0  0  0  0  0
    4.3390    1.1718    0.3363 H   0  0  0  0  0  0  0  0  0  0  0  0
    4.8096   -1.0416    1.3960 H   0  0  0  0  0  0  0  0  0  0  0  0
    3.2839   -3.8113   -2.4110 H   0  0  0  0  0  0  0  0  0  0  0  0
    2.0403   -1.8332   -1.8137 H   0  0  0  0  0  0  0  0  0  0  0  0
    5.7334   -6.4709   -2.1234 H   0  0  0  0  0  0  0  0  0  0  0  0
    5.0903   -5.1549   -3.1147 H   0  0  0  0  0  0  0  0  0  0  0  0
    4.0479   -5.9902   -1.8898 H   0  0  0  0  0  0  0  0  0  0  0  0
    8.3589   -3.6425    0.8364 H   0  0  0  0  0  0  0  0  0  0  0  0
    7.5988   -3.6250   -0.7488 H   0  0  0  0  0  0  0  0  0  0  0  0
    7.0875   -4.8114    0.5309 H   0  0  0  0  0  0  0  0  0  0  0  0
  1  2  1  0  0  0  0
  1 14  1  0  0  0  0
  1 15  1  0  0  0  0
  1 16  1  0  0  0  0
  2  3  2  0  0  0  0
  2  4  1  0  0  0  0
  3 17  1  0  0  0  0
  3 18  1  0  0  0  0
  4  5  2  0  0  0  0
  4  9  1  0  0  0  0
  5  6  1  0  0  0  0
  5 19  1  0  0  0  0
  6  7  2  0  0  0  0
  6 12  1  0  0  0  0
  7  8  1  0  0  0  0
  7 10  1  0  0  0  0
  8  9  2  0  0  0  0
  8 20  1  0  0  0  0
  9 21  1  0  0  0  0
 10 11  1  0  0  0  0
 11 22  1  0  0  0  0
 11 23  1  0  0  0  0
 11 24  1  0  0  0  0
 12 13  1  0  0  0  0
 13 25  1  0  0  0  0
 13 26  1  0  0  0  0
 13 27  1  0  0  0  0
M  END
$$$$
