
 OpenBabel07202215583D

 34 34  0  0  0  0  0  0  0  0999 V2000
    0.9579    0.0264   -0.0866 C   0  0  0  0  0  0  0  0  0  0  0  0
    2.4572    0.0203   -0.0403 C   0  0  0  0  0  0  0  0  0  0  0  0
    3.0763    0.1112    1.0197 O   0  0  0  0  0  0  0  0  0  0  0  0
    3.1539   -0.0885   -1.3462 C   0  0  0  0  0  0  0  0  0  0  0  0
    4.4920   -0.1302   -1.3872 C   0  0  0  0  0  0  0  0  0  0  0  0
    5.2833   -0.1630   -2.6747 C   0  0  0  0  0  0  0  0  0  0  0  0
    6.0035   -1.4959   -2.7500 C   0  0  0  0  0  0  0  0  0  0  0  0
    7.3387   -1.6029   -2.6133 C   0  0  0  0  0  0  0  0  0  0  0  0
    8.2442   -0.4290   -2.3570 C   0  0  0  0  0  0  0  0  0  0  0  0
    7.4905    0.8401   -1.9381 C   0  0  0  0  0  0  0  0  0  0  0  0
    6.2267    1.0793   -2.7948 C   0  0  0  0  0  0  0  0  0  0  0  0
    6.6263    1.3041   -4.2719 C   0  0  0  0  0  0  0  0  0  0  0  0
    5.4989    2.3571   -2.3195 C   0  0  0  0  0  0  0  0  0  0  0  0
    5.1164   -2.6966   -2.9422 C   0  0  0  0  0  0  0  0  0  0  0  0
    0.5682    0.1009    0.9320 H   0  0  0  0  0  0  0  0  0  0  0  0
    0.5983   -0.9040   -0.5334 H   0  0  0  0  0  0  0  0  0  0  0  0
    0.6064    0.8873   -0.6616 H   0  0  0  0  0  0  0  0  0  0  0  0
    2.5546   -0.1151   -2.2478 H   0  0  0  0  0  0  0  0  0  0  0  0
    5.0649   -0.0972   -0.4602 H   0  0  0  0  0  0  0  0  0  0  0  0
    4.5903   -0.1202   -3.5278 H   0  0  0  0  0  0  0  0  0  0  0  0
    7.8156   -2.5792   -2.6721 H   0  0  0  0  0  0  0  0  0  0  0  0
    8.8281   -0.2339   -3.2644 H   0  0  0  0  0  0  0  0  0  0  0  0
    8.9645   -0.6873   -1.5728 H   0  0  0  0  0  0  0  0  0  0  0  0
    8.1647    1.7032   -1.9915 H   0  0  0  0  0  0  0  0  0  0  0  0
    7.2077    0.7435   -0.8813 H   0  0  0  0  0  0  0  0  0  0  0  0
    7.1578    0.4500   -4.7019 H   0  0  0  0  0  0  0  0  0  0  0  0
    7.2766    2.1811   -4.3688 H   0  0  0  0  0  0  0  0  0  0  0  0
    5.7415    1.4765   -4.8949 H   0  0  0  0  0  0  0  0  0  0  0  0
    5.2152    2.2990   -1.2627 H   0  0  0  0  0  0  0  0  0  0  0  0
    4.5828    2.5166   -2.9011 H   0  0  0  0  0  0  0  0  0  0  0  0
    6.1299    3.2439   -2.4246 H   0  0  0  0  0  0  0  0  0  0  0  0
    4.0664   -2.3971   -3.0428 H   0  0  0  0  0  0  0  0  0  0  0  0
    5.1752   -3.3622   -2.0753 H   0  0  0  0  0  0  0  0  0  0  0  0
    5.3783   -3.2418   -3.8521 H   0  0  0  0  0  0  0  0  0  0  0  0
  1  2  1  0  0  0  0
  1 15  1  0  0  0  0
  1 16  1  0  0  0  0
  1 17  1  0  0  0  0
  2  3  2  0  0  0  0
  2  4  1  0  0  0  0
  4  5  2  0  0  0  0
  4 18  1  0  0  0  0
  5  6  1  0  0  0  0
  5 19  1  0  0  0  0
  6  7  1  0  0  0  0
  6 11  1  0  0  0  0
  6 20  1  0  0  0  0
  7  8  2  0  0  0  0
  7 14  1  0  0  0  0
  8  9  1  0  0  0  0
  8 21  1  0  0  0  0
  9 10  1  0  0  0  0
  9 22  1  0  0  0  0
  9 23  1  0  0  0  0
 10 11  1  0  0  0  0
 10 24  1  0  0  0  0
 10 25  1  0  0  0  0
 11 12  1  0  0  0  0
 11 13  1  0  0  0  0
 12 26  1  0  0  0  0
 12 27  1  0  0  0  0
 12 28  1  0  0  0  0
 13 29  1  0  0  0  0
 13 30  1  0  0  0  0
 13 31  1  0  0  0  0
 14 32  1  0  0  0  0
 14 33  1  0  0  0  0
 14 34  1  0  0  0  0
M  END
$$$$
