
 OpenBabel07222214433D

 19 18  0  0  0  0  0  0  0  0999 V2000
    1.1548   -0.0304   -0.0294 O   0  5  0  0  0  0  0  0  0  0  0  0
    2.4090    0.0636    0.1107 C   0  0  0  0  0  0  0  0  0  0  0  0
    3.0698    0.6616    1.0023 O   0  0  0  0  0  0  0  0  0  0  0  0
    3.2134   -0.6632   -0.9728 C   0  0  0  0  0  0  0  0  0  0  0  0
    4.7194   -0.5381   -0.7863 C   0  0  0  0  0  0  0  0  0  0  0  0
    5.4884   -1.2710   -1.8790 C   0  0  0  0  0  0  0  0  0  0  0  0
    6.9940   -1.1263   -1.6632 C   0  0  0  0  0  0  0  0  0  0  0  0
    7.7536   -1.8567   -2.7521 C   0  0  0  0  0  0  0  0  0  0  0  0
    9.6701   -1.6686   -2.4716 Br  0  0  0  0  0  0  0  0  0  0  0  0
    2.9241   -0.2532   -1.9485 H   0  0  0  0  0  0  0  0  0  0  0  0
    2.9241   -1.7215   -0.9636 H   0  0  0  0  0  0  0  0  0  0  0  0
    5.0042   -0.9436    0.1925 H   0  0  0  0  0  0  0  0  0  0  0  0
    5.0042    0.5214   -0.7901 H   0  0  0  0  0  0  0  0  0  0  0  0
    5.2145   -0.8663   -2.8609 H   0  0  0  0  0  0  0  0  0  0  0  0
    5.2145   -2.3331   -1.8770 H   0  0  0  0  0  0  0  0  0  0  0  0
    7.2655   -1.5254   -0.6776 H   0  0  0  0  0  0  0  0  0  0  0  0
    7.2655   -0.0630   -1.6585 H   0  0  0  0  0  0  0  0  0  0  0  0
    7.5386   -1.4455   -3.7421 H   0  0  0  0  0  0  0  0  0  0  0  0
    7.5386   -2.9287   -2.7472 H   0  0  0  0  0  0  0  0  0  0  0  0
  1  2  1  0  0  0  0
  2  3  2  0  0  0  0
  2  4  1  0  0  0  0
  4  5  1  0  0  0  0
  4 10  1  0  0  0  0
  4 11  1  0  0  0  0
  5  6  1  0  0  0  0
  5 12  1  0  0  0  0
  5 13  1  0  0  0  0
  6  7  1  0  0  0  0
  6 14  1  0  0  0  0
  6 15  1  0  0  0  0
  7  8  1  0  0  0  0
  7 16  1  0  0  0  0
  7 17  1  0  0  0  0
  8  9  1  0  0  0  0
  8 18  1  0  0  0  0
  8 19  1  0  0  0  0
M  CHG  1   1  -1
M  END
$$$$
