
 OpenBabel07202215583D

 14 13  0  0  0  0  0  0  0  0999 V2000
    1.0751    0.0227    0.0690 C   0  0  0  0  0  0  0  0  0  0  0  0
    2.5710    0.0964    0.0287 C   0  0  0  0  0  0  0  0  0  0  0  0
    3.2247    1.1280   -0.5367 C   0  0  0  0  0  0  0  0  0  0  0  0
    2.5485    2.3001   -1.1791 C   0  0  0  0  0  0  0  0  0  0  0  0
    4.7136    1.1382   -0.5423 C   0  0  0  0  0  0  0  0  0  0  0  0
    5.3627    2.0526   -1.0435 O   0  0  0  0  0  0  0  0  0  0  0  0
    0.7398   -0.8890    0.5687 H   0  0  0  0  0  0  0  0  0  0  0  0
    0.6647    0.0183   -0.9467 H   0  0  0  0  0  0  0  0  0  0  0  0
    0.6647    0.8766    0.6193 H   0  0  0  0  0  0  0  0  0  0  0  0
    3.1093   -0.7327    0.4831 H   0  0  0  0  0  0  0  0  0  0  0  0
    1.4576    2.2273   -1.1392 H   0  0  0  0  0  0  0  0  0  0  0  0
    2.8228    2.3687   -2.2355 H   0  0  0  0  0  0  0  0  0  0  0  0
    2.8228    3.2275   -0.6686 H   0  0  0  0  0  0  0  0  0  0  0  0
    5.2111    0.2759   -0.0697 H   0  0  0  0  0  0  0  0  0  0  0  0
  1  2  1  0  0  0  0
  1  7  1  0  0  0  0
  1  8  1  0  0  0  0
  1  9  1  0  0  0  0
  2  3  2  0  0  0  0
  2 10  1  0  0  0  0
  3  4  1  0  0  0  0
  3  5  1  0  0  0  0
  4 11  1  0  0  0  0
  4 12  1  0  0  0  0
  4 13  1  0  0  0  0
  5  6  2  0  0  0  0
  5 14  1  0  0  0  0
M  END
$$$$
