
 OpenBabel07202215583D

 22 21  0  0  0  0  0  0  0  0999 V2000
    0.9770    0.0492   -0.0933 C   0  0  0  0  0  0  0  0  0  0  0  0
    2.4966    0.0464   -0.0935 C   0  0  0  0  0  0  0  0  0  0  0  0
    3.0217   -1.3799   -0.1609 C   0  0  0  0  0  0  0  0  0  0  0  0
    4.5468   -1.4341   -0.1635 C   0  0  0  0  0  0  0  0  0  0  0  0
    5.0123   -2.8759   -0.2317 C   0  0  0  0  0  0  0  0  0  0  0  0
    4.2099   -3.8117   -0.2760 O   0  0  0  0  0  0  0  0  0  0  0  0
    6.5085   -3.1154   -0.2431 C   0  0  0  0  0  0  0  0  0  0  0  0
    6.8031   -4.6050   -0.3135 C   0  0  0  0  0  0  0  0  0  0  0  0
    0.5979    1.0735   -0.0449 H   0  0  0  0  0  0  0  0  0  0  0  0
    0.5868   -0.5031    0.7680 H   0  0  0  0  0  0  0  0  0  0  0  0
    0.5868   -0.4193   -1.0030 H   0  0  0  0  0  0  0  0  0  0  0  0
    2.8639    0.5372    0.8147 H   0  0  0  0  0  0  0  0  0  0  0  0
    2.8639    0.6208   -0.9512 H   0  0  0  0  0  0  0  0  0  0  0  0
    2.6367   -1.8698   -1.0651 H   0  0  0  0  0  0  0  0  0  0  0  0
    2.6367   -1.9530    0.6929 H   0  0  0  0  0  0  0  0  0  0  0  0
    4.9439   -0.9787    0.7502 H   0  0  0  0  0  0  0  0  0  0  0  0
    4.9439   -0.8944   -1.0301 H   0  0  0  0  0  0  0  0  0  0  0  0
    6.9415   -2.6921    0.6691 H   0  0  0  0  0  0  0  0  0  0  0  0
    6.9415   -2.6079   -1.1112 H   0  0  0  0  0  0  0  0  0  0  0  0
    6.3670   -5.1257    0.5465 H   0  0  0  0  0  0  0  0  0  0  0  0
    7.8789   -4.7947   -0.3225 H   0  0  0  0  0  0  0  0  0  0  0  0
    6.3670   -5.0422   -1.2190 H   0  0  0  0  0  0  0  0  0  0  0  0
  1  2  1  0  0  0  0
  1  9  1  0  0  0  0
  1 10  1  0  0  0  0
  1 11  1  0  0  0  0
  2  3  1  0  0  0  0
  2 12  1  0  0  0  0
  2 13  1  0  0  0  0
  3  4  1  0  0  0  0
  3 14  1  0  0  0  0
  3 15  1  0  0  0  0
  4  5  1  0  0  0  0
  4 16  1  0  0  0  0
  4 17  1  0  0  0  0
  5  6  2  0  0  0  0
  5  7  1  0  0  0  0
  7  8  1  0  0  0  0
  7 18  1  0  0  0  0
  7 19  1  0  0  0  0
  8 20  1  0  0  0  0
  8 21  1  0  0  0  0
  8 22  1  0  0  0  0
M  END
$$$$
