
 OpenBabel07122215493D

 29 28  0  0  0  0  0  0  0  0999 V2000
    0.9773    0.0094   -0.0925 C   0  0  0  0  0  0  0  0  0  0  0  0
    2.4743    0.0152   -0.0968 C   0  0  0  0  0  0  0  0  0  0  0  0
    3.1940   -1.3060   -0.0270 C   0  0  0  0  0  0  0  0  0  0  0  0
    3.1432    1.1815   -0.1641 C   0  0  0  0  0  0  0  0  0  0  0  0
    4.6360    1.2303   -0.1663 C   0  0  0  0  0  0  0  0  0  0  0  0
    5.2062    2.6454   -0.2308 C   0  0  0  0  0  0  0  0  0  0  0  0
    6.7496    2.6484   -0.2036 C   0  0  0  0  0  0  0  0  0  0  0  0
    7.2829    1.9769    1.0719 C   0  0  0  0  0  0  0  0  0  0  0  0
    7.2451    1.9545   -1.3500 O   0  0  0  0  0  0  0  0  0  0  0  0
    7.2783    4.0589   -0.3034 C   0  0  0  0  0  0  0  0  0  0  0  0
    8.5871    4.3649   -0.3323 C   0  0  0  0  0  0  0  0  0  0  0  0
    0.5766   -1.0065   -0.0410 H   0  0  0  0  0  0  0  0  0  0  0  0
    0.5943    0.4735   -1.0072 H   0  0  0  0  0  0  0  0  0  0  0  0
    0.5976    0.5628    0.7726 H   0  0  0  0  0  0  0  0  0  0  0  0
    2.5041   -2.1519    0.0158 H   0  0  0  0  0  0  0  0  0  0  0  0
    3.8264   -1.3537    0.8670 H   0  0  0  0  0  0  0  0  0  0  0  0
    3.8284   -1.4451   -0.9099 H   0  0  0  0  0  0  0  0  0  0  0  0
    2.5993    2.1225   -0.2105 H   0  0  0  0  0  0  0  0  0  0  0  0
    4.9996    0.6512   -1.0222 H   0  0  0  0  0  0  0  0  0  0  0  0
    4.9771    0.7397    0.7503 H   0  0  0  0  0  0  0  0  0  0  0  0
    4.8156    3.2344    0.6101 H   0  0  0  0  0  0  0  0  0  0  0  0
    4.8462    3.1221   -1.1531 H   0  0  0  0  0  0  0  0  0  0  0  0
    6.9948    0.9235    1.1344 H   0  0  0  0  0  0  0  0  0  0  0  0
    6.9182    2.4924    1.9674 H   0  0  0  0  0  0  0  0  0  0  0  0
    8.3771    1.9642    1.0979 H   0  0  0  0  0  0  0  0  0  0  0  0
    6.9946    1.0202   -1.2819 H   0  0  0  0  0  0  0  0  0  0  0  0
    6.5561    4.8693   -0.3488 H   0  0  0  0  0  0  0  0  0  0  0  0
    9.3373    3.5805   -0.3088 H   0  0  0  0  0  0  0  0  0  0  0  0
    8.9270    5.3903   -0.3906 H   0  0  0  0  0  0  0  0  0  0  0  0
  1  2  1  0  0  0  0
  1 12  1  0  0  0  0
  1 13  1  0  0  0  0
  1 14  1  0  0  0  0
  2  3  1  0  0  0  0
  2  4  2  0  0  0  0
  3 15  1  0  0  0  0
  3 16  1  0  0  0  0
  3 17  1  0  0  0  0
  4  5  1  0  0  0  0
  4 18  1  0  0  0  0
  5  6  1  0  0  0  0
  5 19  1  0  0  0  0
  5 20  1  0  0  0  0
  6  7  1  0  0  0  0
  6 21  1  0  0  0  0
  6 22  1  0  0  0  0
  7  8  1  0  0  0  0
  7  9  1  0  0  0  0
  7 10  1  0  0  0  0
  8 23  1  0  0  0  0
  8 24  1  0  0  0  0
  8 25  1  0  0  0  0
  9 26  1  0  0  0  0
 10 11  2  0  0  0  0
 10 27  1  0  0  0  0
 11 28  1  0  0  0  0
 11 29  1  0  0  0  0
M  END
$$$$
