
 OpenBabel07122215493D

 18 18  0  0  0  0  0  0  0  0999 V2000
    0.9075   -0.0327   -0.1207 C   0  0  0  0  0  0  0  0  0  0  0  0
    2.4302   -0.0791   -0.0382 C   0  0  0  0  0  0  0  0  0  0  0  0
    2.9529   -0.0706    1.3986 C   0  0  0  0  0  0  0  0  0  0  0  0
    2.4169   -1.1977    2.2578 C   0  0  0  0  0  0  0  0  0  0  0  0
    2.2802   -0.5786    3.6234 C   0  0  0  0  0  0  0  0  0  0  0  0
    2.2136    0.8899    3.3371 C   0  0  0  0  0  0  0  0  0  0  0  0
    1.9192    1.7509    4.1471 O   0  0  0  0  0  0  0  0  0  0  0  0
    2.5605    1.1429    2.0452 O   0  0  0  0  0  0  0  0  0  0  0  0
    0.5789   -0.0088   -1.1621 H   0  0  0  0  0  0  0  0  0  0  0  0
    0.5144    0.8513    0.3908 H   0  0  0  0  0  0  0  0  0  0  0  0
    0.4469   -0.9153    0.3301 H   0  0  0  0  0  0  0  0  0  0  0  0
    2.8210    0.8003   -0.5661 H   0  0  0  0  0  0  0  0  0  0  0  0
    2.8018   -0.9676   -0.5606 H   0  0  0  0  0  0  0  0  0  0  0  0
    4.0501   -0.0891    1.3840 H   0  0  0  0  0  0  0  0  0  0  0  0
    3.0710   -2.0742    2.2420 H   0  0  0  0  0  0  0  0  0  0  0  0
    1.4336   -1.5531    1.9422 H   0  0  0  0  0  0  0  0  0  0  0  0
    3.1507   -0.7928    4.2452 H   0  0  0  0  0  0  0  0  0  0  0  0
    1.3595   -0.9103    4.1116 H   0  0  0  0  0  0  0  0  0  0  0  0
  1  2  1  0  0  0  0
  1  9  1  0  0  0  0
  1 10  1  0  0  0  0
  1 11  1  0  0  0  0
  2  3  1  0  0  0  0
  2 12  1  0  0  0  0
  2 13  1  0  0  0  0
  3  4  1  0  0  0  0
  3  8  1  0  0  0  0
  3 14  1  0  0  0  0
  4  5  1  0  0  0  0
  4 15  1  0  0  0  0
  4 16  1  0  0  0  0
  5  6  1  0  0  0  0
  5 17  1  0  0  0  0
  5 18  1  0  0  0  0
  6  7  2  0  0  0  0
  6  8  1  0  0  0  0
M  END
$$$$
