
 OpenBabel07122215493D

 18 18  0  0  0  0  0  0  0  0999 V2000
    0.9860    0.0311   -0.0879 C   0  0  0  0  0  0  0  0  0  0  0  0
    2.4070   -0.0646   -0.0476 O   0  0  0  0  0  0  0  0  0  0  0  0
    3.0310   -0.1596   -1.2610 C   0  0  0  0  0  0  0  0  0  0  0  0
    4.1816   -0.9544   -1.2952 C   0  0  0  0  0  0  0  0  0  0  0  0
    4.9568   -1.0363   -2.4572 C   0  0  0  0  0  0  0  0  0  0  0  0
    4.5390   -0.3665   -3.6087 C   0  0  0  0  0  0  0  0  0  0  0  0
    3.4001    0.4413   -3.5762 C   0  0  0  0  0  0  0  0  0  0  0  0
    2.6528    0.5514   -2.4000 C   0  0  0  0  0  0  0  0  0  0  0  0
    5.2729   -0.5557   -4.8758 C   0  0  0  0  0  0  0  0  0  0  0  0
    4.9096   -0.0263   -5.9230 O   0  0  0  0  0  0  0  0  0  0  0  0
    0.6340    0.1926    0.9362 H   0  0  0  0  0  0  0  0  0  0  0  0
    0.5588   -0.9090   -0.4498 H   0  0  0  0  0  0  0  0  0  0  0  0
    0.6252    0.8752   -0.6821 H   0  0  0  0  0  0  0  0  0  0  0  0
    4.4690   -1.5222   -0.4129 H   0  0  0  0  0  0  0  0  0  0  0  0
    5.8720   -1.6219   -2.4483 H   0  0  0  0  0  0  0  0  0  0  0  0
    3.0944    0.9930   -4.4629 H   0  0  0  0  0  0  0  0  0  0  0  0
    1.7949    1.2142   -2.3999 H   0  0  0  0  0  0  0  0  0  0  0  0
    6.1496   -1.2220   -4.8491 H   0  0  0  0  0  0  0  0  0  0  0  0
  1  2  1  0  0  0  0
  1 11  1  0  0  0  0
  1 12  1  0  0  0  0
  1 13  1  0  0  0  0
  2  3  1  0  0  0  0
  3  4  2  0  0  0  0
  3  8  1  0  0  0  0
  4  5  1  0  0  0  0
  4 14  1  0  0  0  0
  5  6  2  0  0  0  0
  5 15  1  0  0  0  0
  6  7  1  0  0  0  0
  6  9  1  0  0  0  0
  7  8  2  0  0  0  0
  7 16  1  0  0  0  0
  8 17  1  0  0  0  0
  9 10  2  0  0  0  0
  9 18  1  0  0  0  0
M  END
$$$$
