
 OpenBabel07122215493D

 24 24  0  0  0  0  0  0  0  0999 V2000
    1.0003   -0.1142   -0.0151 C   0  0  0  0  0  0  0  0  0  0  0  0
    2.5063   -0.1399   -0.0538 C   0  0  0  0  0  0  0  0  0  0  0  0
    2.9612   -0.8461   -1.2251 O   0  0  0  0  0  0  0  0  0  0  0  0
    4.3232   -0.7999   -1.2910 C   0  0  0  0  0  0  0  0  0  0  0  0
    4.9651   -0.1716   -0.4519 O   0  0  0  0  0  0  0  0  0  0  0  0
    4.9018   -1.5686   -2.4820 C   0  0  0  0  0  0  0  0  0  0  0  0
    6.4294   -1.6032   -2.5674 C   0  0  0  0  0  0  0  0  0  0  0  0
    7.2497   -1.1527   -1.5215 C   0  0  0  0  0  0  0  0  0  0  0  0
    8.6170   -0.9696   -1.6719 C   0  0  0  0  0  0  0  0  0  0  0  0
    9.2375   -1.4094   -2.8246 C   0  0  0  0  0  0  0  0  0  0  0  0
    8.4715   -1.9741   -3.8440 C   0  0  0  0  0  0  0  0  0  0  0  0
    7.0741   -2.0545   -3.7295 C   0  0  0  0  0  0  0  0  0  0  0  0
    0.6511    0.4050    0.8830 H   0  0  0  0  0  0  0  0  0  0  0  0
    0.6054   -1.1330   -0.0162 H   0  0  0  0  0  0  0  0  0  0  0  0
    0.6092    0.3991   -0.8974 H   0  0  0  0  0  0  0  0  0  0  0  0
    2.8848   -0.6474    0.8439 H   0  0  0  0  0  0  0  0  0  0  0  0
    2.8786    0.8946   -0.0619 H   0  0  0  0  0  0  0  0  0  0  0  0
    4.5316   -1.0693   -3.3888 H   0  0  0  0  0  0  0  0  0  0  0  0
    4.5235   -2.5980   -2.4740 H   0  0  0  0  0  0  0  0  0  0  0  0
    6.8657   -0.9021   -0.5411 H   0  0  0  0  0  0  0  0  0  0  0  0
    9.1707   -0.4818   -0.8747 H   0  0  0  0  0  0  0  0  0  0  0  0
   10.3156   -1.3240   -2.9106 H   0  0  0  0  0  0  0  0  0  0  0  0
    8.9693   -2.3294   -4.7422 H   0  0  0  0  0  0  0  0  0  0  0  0
    6.5058   -2.4685   -4.5603 H   0  0  0  0  0  0  0  0  0  0  0  0
  1  2  1  0  0  0  0
  1 13  1  0  0  0  0
  1 14  1  0  0  0  0
  1 15  1  0  0  0  0
  2  3  1  0  0  0  0
  2 16  1  0  0  0  0
  2 17  1  0  0  0  0
  3  4  1  0  0  0  0
  4  5  2  0  0  0  0
  4  6  1  0  0  0  0
  6  7  1  0  0  0  0
  6 18  1  0  0  0  0
  6 19  1  0  0  0  0
  7  8  2  0  0  0  0
  7 12  1  0  0  0  0
  8  9  1  0  0  0  0
  8 20  1  0  0  0  0
  9 10  2  0  0  0  0
  9 21  1  0  0  0  0
 10 11  1  0  0  0  0
 10 22  1  0  0  0  0
 11 12  2  0  0  0  0
 11 23  1  0  0  0  0
 12 24  1  0  0  0  0
M  END
$$$$
