
 OpenBabel07222214433D

 37 36  0  0  0  0  0  0  0  0999 V2000
    0.9386    0.0714   -0.0556 C   0  0  0  0  0  0  0  0  0  0  0  0
    2.4546    0.0665   -0.0612 C   0  0  0  0  0  0  0  0  0  0  0  0
    2.9781   -0.8780   -1.1338 C   0  0  0  0  0  0  0  0  0  0  0  0
    4.4983   -0.8849   -1.1416 C   0  0  0  0  0  0  0  0  0  0  0  0
    5.0120   -1.8302   -2.2152 C   0  0  0  0  0  0  0  0  0  0  0  0
    6.5309   -1.8358   -2.2215 C   0  0  0  0  0  0  0  0  0  0  0  0
    7.0451   -2.7805   -3.2943 C   0  0  0  0  0  0  0  0  0  0  0  0
    8.5649   -2.7858   -3.3003 C   0  0  0  0  0  0  0  0  0  0  0  0
    9.0819   -3.7306   -4.3733 C   0  0  0  0  0  0  0  0  0  0  0  0
   10.6039   -3.7416   -4.3858 C   0  0  0  0  0  0  0  0  0  0  0  0
   11.1170   -4.6878   -5.4603 C   0  0  0  0  0  0  0  0  0  0  0  0
   12.6195   -4.7094   -5.4848 C   0  0  0  0  0  0  0  0  0  0  0  0
   13.2588   -5.4029   -6.2724 O   0  0  0  0  0  0  0  0  0  0  0  0
    0.5647    0.7502    0.7152 H   0  0  0  0  0  0  0  0  0  0  0  0
    0.5496   -0.9314    0.1479 H   0  0  0  0  0  0  0  0  0  0  0  0
    0.5496    0.4002   -1.0246 H   0  0  0  0  0  0  0  0  0  0  0  0
    2.8257   -0.2437    0.9227 H   0  0  0  0  0  0  0  0  0  0  0  0
    2.8257    1.0817   -0.2445 H   0  0  0  0  0  0  0  0  0  0  0  0
    2.6054   -0.5687   -2.1182 H   0  0  0  0  0  0  0  0  0  0  0  0
    2.6054   -1.8936   -0.9515 H   0  0  0  0  0  0  0  0  0  0  0  0
    4.8758   -1.1975   -0.1604 H   0  0  0  0  0  0  0  0  0  0  0  0
    4.8758    0.1280   -1.3276 H   0  0  0  0  0  0  0  0  0  0  0  0
    4.6367   -1.5191   -3.1979 H   0  0  0  0  0  0  0  0  0  0  0  0
    4.6367   -2.8445   -2.0309 H   0  0  0  0  0  0  0  0  0  0  0  0
    6.9066   -2.1474   -1.2391 H   0  0  0  0  0  0  0  0  0  0  0  0
    6.9066   -0.8219   -2.4063 H   0  0  0  0  0  0  0  0  0  0  0  0
    6.6684   -2.4687   -4.2763 H   0  0  0  0  0  0  0  0  0  0  0  0
    6.6684   -3.7940   -3.1092 H   0  0  0  0  0  0  0  0  0  0  0  0
    8.9386   -3.0965   -2.3169 H   0  0  0  0  0  0  0  0  0  0  0  0
    8.9386   -1.7710   -3.4841 H   0  0  0  0  0  0  0  0  0  0  0  0
    8.7027   -3.4181   -5.3541 H   0  0  0  0  0  0  0  0  0  0  0  0
    8.7027   -4.7431   -4.1873 H   0  0  0  0  0  0  0  0  0  0  0  0
   10.9820   -4.0483   -3.4023 H   0  0  0  0  0  0  0  0  0  0  0  0
   10.9820   -2.7272   -4.5656 H   0  0  0  0  0  0  0  0  0  0  0  0
   10.7618   -4.3661   -6.4448 H   0  0  0  0  0  0  0  0  0  0  0  0
   10.7618   -5.7052   -5.2657 H   0  0  0  0  0  0  0  0  0  0  0  0
   13.1380   -4.0662   -4.7543 H   0  0  0  0  0  0  0  0  0  0  0  0
  1  2  1  0  0  0  0
  1 14  1  0  0  0  0
  1 15  1  0  0  0  0
  1 16  1  0  0  0  0
  2  3  1  0  0  0  0
  2 17  1  0  0  0  0
  2 18  1  0  0  0  0
  3  4  1  0  0  0  0
  3 19  1  0  0  0  0
  3 20  1  0  0  0  0
  4  5  1  0  0  0  0
  4 21  1  0  0  0  0
  4 22  1  0  0  0  0
  5  6  1  0  0  0  0
  5 23  1  0  0  0  0
  5 24  1  0  0  0  0
  6  7  1  0  0  0  0
  6 25  1  0  0  0  0
  6 26  1  0  0  0  0
  7  8  1  0  0  0  0
  7 27  1  0  0  0  0
  7 28  1  0  0  0  0
  8  9  1  0  0  0  0
  8 29  1  0  0  0  0
  8 30  1  0  0  0  0
  9 10  1  0  0  0  0
  9 31  1  0  0  0  0
  9 32  1  0  0  0  0
 10 11  1  0  0  0  0
 10 33  1  0  0  0  0
 10 34  1  0  0  0  0
 11 12  1  0  0  0  0
 11 35  1  0  0  0  0
 11 36  1  0  0  0  0
 12 13  2  0  0  0  0
 12 37  1  0  0  0  0
M  END
$$$$
