
 OpenBabel07202215583D

 38 37  0  0  0  0  0  0  0  0999 V2000
    0.9189    0.0510    0.0375 C   0  0  0  0  0  0  0  0  0  0  0  0
    2.4352    0.0585    0.0392 C   0  0  0  0  0  0  0  0  0  0  0  0
    2.9593    1.4524    0.3560 C   0  0  0  0  0  0  0  0  0  0  0  0
    4.4804    1.4638    0.3586 C   0  0  0  0  0  0  0  0  0  0  0  0
    4.9964    2.8595    0.6758 C   0  0  0  0  0  0  0  0  0  0  0  0
    6.5179    2.8721    0.6786 C   0  0  0  0  0  0  0  0  0  0  0  0
    7.0369    4.2687    0.9960 C   0  0  0  0  0  0  0  0  0  0  0  0
    8.5615    4.2869    1.0002 C   0  0  0  0  0  0  0  0  0  0  0  0
    9.0938    5.6831    1.3175 C   0  0  0  0  0  0  0  0  0  0  0  0
   10.6200    5.7052    1.3225 C   0  0  0  0  0  0  0  0  0  0  0  0
   11.0836    7.0330    1.6242 O   0  0  0  0  0  0  0  0  0  0  0  0
   12.4412    7.1494    1.6507 C   0  0  0  0  0  0  0  0  0  0  0  0
   13.2289    6.2330    1.4424 O   0  0  0  0  0  0  0  0  0  0  0  0
   12.8808    8.5497    1.9689 C   0  0  0  0  0  0  0  0  0  0  0  0
    0.5449   -0.9505   -0.1901 H   0  0  0  0  0  0  0  0  0  0  0  0
    0.5297    0.7448   -0.7146 H   0  0  0  0  0  0  0  0  0  0  0  0
    0.5297    0.3516    1.0155 H   0  0  0  0  0  0  0  0  0  0  0  0
    2.8058   -0.2661   -0.9401 H   0  0  0  0  0  0  0  0  0  0  0  0
    2.8058   -0.6575    0.7820 H   0  0  0  0  0  0  0  0  0  0  0  0
    2.5859    1.7775    1.3350 H   0  0  0  0  0  0  0  0  0  0  0  0
    2.5859    2.1687   -0.3864 H   0  0  0  0  0  0  0  0  0  0  0  0
    4.8570    1.1422   -0.6202 H   0  0  0  0  0  0  0  0  0  0  0  0
    4.8570    0.7508    1.1021 H   0  0  0  0  0  0  0  0  0  0  0  0
    4.6195    3.1815    1.6543 H   0  0  0  0  0  0  0  0  0  0  0  0
    4.6195    3.5728   -0.0675 H   0  0  0  0  0  0  0  0  0  0  0  0
    6.8917    2.5480   -0.3004 H   0  0  0  0  0  0  0  0  0  0  0  0
    6.8917    2.1566    1.4214 H   0  0  0  0  0  0  0  0  0  0  0  0
    6.6571    4.5881    1.9741 H   0  0  0  0  0  0  0  0  0  0  0  0
    6.6571    4.9795    0.2520 H   0  0  0  0  0  0  0  0  0  0  0  0
    8.9321    3.9594    0.0209 H   0  0  0  0  0  0  0  0  0  0  0  0
    8.9321    3.5683    1.7416 H   0  0  0  0  0  0  0  0  0  0  0  0
    8.7156    6.0161    2.2918 H   0  0  0  0  0  0  0  0  0  0  0  0
    8.7156    6.4045    0.5827 H   0  0  0  0  0  0  0  0  0  0  0  0
   10.9931    5.4043    0.3362 H   0  0  0  0  0  0  0  0  0  0  0  0
   10.9931    5.0076    2.0818 H   0  0  0  0  0  0  0  0  0  0  0  0
   12.0277    9.2165    2.1205 H   0  0  0  0  0  0  0  0  0  0  0  0
   13.4792    8.9377    1.1396 H   0  0  0  0  0  0  0  0  0  0  0  0
   13.4792    8.5412    2.8845 H   0  0  0  0  0  0  0  0  0  0  0  0
  1  2  1  0  0  0  0
  1 15  1  0  0  0  0
  1 16  1  0  0  0  0
  1 17  1  0  0  0  0
  2  3  1  0  0  0  0
  2 18  1  0  0  0  0
  2 19  1  0  0  0  0
  3  4  1  0  0  0  0
  3 20  1  0  0  0  0
  3 21  1  0  0  0  0
  4  5  1  0  0  0  0
  4 22  1  0  0  0  0
  4 23  1  0  0  0  0
  5  6  1  0  0  0  0
  5 24  1  0  0  0  0
  5 25  1  0  0  0  0
  6  7  1  0  0  0  0
  6 26  1  0  0  0  0
  6 27  1  0  0  0  0
  7  8  1  0  0  0  0
  7 28  1  0  0  0  0
  7 29  1  0  0  0  0
  8  9  1  0  0  0  0
  8 30  1  0  0  0  0
  8 31  1  0  0  0  0
  9 10  1  0  0  0  0
  9 32  1  0  0  0  0
  9 33  1  0  0  0  0
 10 11  1  0  0  0  0
 10 34  1  0  0  0  0
 10 35  1  0  0  0  0
 11 12  1  0  0  0  0
 12 13  2  0  0  0  0
 12 14  1  0  0  0  0
 14 36  1  0  0  0  0
 14 37  1  0  0  0  0
 14 38  1  0  0  0  0
M  END
$$$$
