
 OpenBabel07222214443D

 21 21  0  0  0  0  0  0  0  0999 V2000
    0.9701    0.0434    0.0869 C   0  0  0  0  0  0  0  0  0  0  0  0
    2.4915    0.0546    0.0450 C   0  0  0  0  0  0  0  0  0  0  0  0
    2.9990    0.7760   -1.1904 C   0  0  0  0  0  0  0  0  0  0  0  0
    2.2540    1.3077   -2.0122 O   0  0  0  0  0  0  0  0  0  0  0  0
    4.4656    0.8916   -1.3870 C   0  0  0  0  0  0  0  0  0  0  0  0
    5.3240   -0.1968   -1.1926 C   0  0  0  0  0  0  0  0  0  0  0  0
    6.6956   -0.0566   -1.4411 C   0  0  0  0  0  0  0  0  0  0  0  0
    7.1942    1.1709   -1.8722 C   0  0  0  0  0  0  0  0  0  0  0  0
    6.3478    2.2585   -2.0549 C   0  0  0  0  0  0  0  0  0  0  0  0
    4.9796    2.1187   -1.8221 C   0  0  0  0  0  0  0  0  0  0  0  0
    8.5175    1.3607   -2.1396 O   0  0  0  0  0  0  0  0  0  0  0  0
    0.6090   -0.4688    0.9836 H   0  0  0  0  0  0  0  0  0  0  0  0
    0.5620   -0.4710   -0.7899 H   0  0  0  0  0  0  0  0  0  0  0  0
    0.5699    1.0632    0.0907 H   0  0  0  0  0  0  0  0  0  0  0  0
    2.8521   -0.9777    0.0521 H   0  0  0  0  0  0  0  0  0  0  0  0
    2.8726    0.5727    0.9323 H   0  0  0  0  0  0  0  0  0  0  0  0
    4.9389   -1.1643   -0.8843 H   0  0  0  0  0  0  0  0  0  0  0  0
    7.3508   -0.9116   -1.3031 H   0  0  0  0  0  0  0  0  0  0  0  0
    6.7518    3.2103   -2.3880 H   0  0  0  0  0  0  0  0  0  0  0  0
    4.3169    2.9666   -1.9823 H   0  0  0  0  0  0  0  0  0  0  0  0
    8.9970    0.5256   -2.0175 H   0  0  0  0  0  0  0  0  0  0  0  0
  1  2  1  0  0  0  0
  1 12  1  0  0  0  0
  1 13  1  0  0  0  0
  1 14  1  0  0  0  0
  2  3  1  0  0  0  0
  2 15  1  0  0  0  0
  2 16  1  0  0  0  0
  3  4  2  0  0  0  0
  3  5  1  0  0  0  0
  5  6  2  0  0  0  0
  5 10  1  0  0  0  0
  6  7  1  0  0  0  0
  6 17  1  0  0  0  0
  7  8  2  0  0  0  0
  7 18  1  0  0  0  0
  8  9  1  0  0  0  0
  8 11  1  0  0  0  0
  9 10  2  0  0  0  0
  9 19  1  0  0  0  0
 10 20  1  0  0  0  0
 11 21  1  0  0  0  0
M  END
$$$$
