
 OpenBabel07222214433D

 19 19  0  0  0  0  0  0  0  0999 V2000
    1.0332   -0.0516   -0.0505 C   0  0  0  0  0  0  0  0  0  0  0  0
    2.5570   -0.0032   -0.0813 C   0  0  0  0  0  0  0  0  0  0  0  0
    3.0390    0.7555   -1.2930 C   0  0  0  0  0  0  0  0  0  0  0  0
    3.6217    0.0745   -2.3721 C   0  0  0  0  0  0  0  0  0  0  0  0
    3.9697    0.7663   -3.5348 C   0  0  0  0  0  0  0  0  0  0  0  0
    3.7404    2.1374   -3.6278 C   0  0  0  0  0  0  0  0  0  0  0  0
    3.1833    2.8309   -2.5525 C   0  0  0  0  0  0  0  0  0  0  0  0
    2.8479    2.1373   -1.3919 C   0  0  0  0  0  0  0  0  0  0  0  0
    2.3061    2.8001   -0.3249 O   0  0  0  0  0  0  0  0  0  0  0  0
    0.6828   -0.5913    0.8330 H   0  0  0  0  0  0  0  0  0  0  0  0
    0.6410   -0.5512   -0.9430 H   0  0  0  0  0  0  0  0  0  0  0  0
    0.5928    0.9508   -0.0208 H   0  0  0  0  0  0  0  0  0  0  0  0
    2.9527   -1.0258   -0.0855 H   0  0  0  0  0  0  0  0  0  0  0  0
    2.9448    0.4727    0.8274 H   0  0  0  0  0  0  0  0  0  0  0  0
    3.7918   -0.9977   -2.3211 H   0  0  0  0  0  0  0  0  0  0  0  0
    4.4077    0.2295   -4.3732 H   0  0  0  0  0  0  0  0  0  0  0  0
    3.9961    2.6693   -4.5408 H   0  0  0  0  0  0  0  0  0  0  0  0
    3.0121    3.8975   -2.6371 H   0  0  0  0  0  0  0  0  0  0  0  0
    2.1358    3.7202   -0.5749 H   0  0  0  0  0  0  0  0  0  0  0  0
  1  2  1  0  0  0  0
  1 10  1  0  0  0  0
  1 11  1  0  0  0  0
  1 12  1  0  0  0  0
  2  3  1  0  0  0  0
  2 13  1  0  0  0  0
  2 14  1  0  0  0  0
  3  4  2  0  0  0  0
  3  8  1  0  0  0  0
  4  5  1  0  0  0  0
  4 15  1  0  0  0  0
  5  6  2  0  0  0  0
  5 16  1  0  0  0  0
  6  7  1  0  0  0  0
  6 17  1  0  0  0  0
  7  8  2  0  0  0  0
  7 18  1  0  0  0  0
  8  9  1  0  0  0  0
  9 19  1  0  0  0  0
M  END
$$$$
