
 OpenBabel07222214433D

 30 30  0  0  0  0  0  0  0  0999 V2000
    1.0526    0.0080   -0.0574 C   0  0  0  0  0  0  0  0  0  0  0  0
    2.5688    0.0167   -0.0618 C   0  0  0  0  0  0  0  0  0  0  0  0
    3.0886    1.1389   -0.9503 C   0  0  0  0  0  0  0  0  0  0  0  0
    4.6085    1.1615   -0.9514 C   0  0  0  0  0  0  0  0  0  0  0  0
    5.1202    2.2946   -1.8352 C   0  0  0  0  0  0  0  0  0  0  0  0
    6.5987    2.2553   -1.8842 C   0  0  0  0  0  0  0  0  0  0  0  0
    7.4023    1.5089   -2.6515 C   0  0  0  0  0  0  0  0  0  0  0  0
    6.9450    0.5299   -3.6811 C   0  0  0  0  0  0  0  0  0  0  0  0
    8.8614    1.7046   -2.3713 C   0  0  0  0  0  0  0  0  0  0  0  0
    8.9212    2.8316   -1.3426 C   0  0  0  0  0  0  0  0  0  0  0  0
    7.4747    3.0738   -1.0287 C   0  0  0  0  0  0  0  0  0  0  0  0
    7.0617    3.8597   -0.1923 O   0  0  0  0  0  0  0  0  0  0  0  0
    0.6793   -0.7948    0.5836 H   0  0  0  0  0  0  0  0  0  0  0  0
    0.6640   -0.1476   -1.0689 H   0  0  0  0  0  0  0  0  0  0  0  0
    0.6625    0.9597    0.3173 H   0  0  0  0  0  0  0  0  0  0  0  0
    2.9414   -0.9500   -0.4210 H   0  0  0  0  0  0  0  0  0  0  0  0
    2.9392    0.1486    0.9615 H   0  0  0  0  0  0  0  0  0  0  0  0
    2.7083    2.1041   -0.5957 H   0  0  0  0  0  0  0  0  0  0  0  0
    2.7216    1.0009   -1.9751 H   0  0  0  0  0  0  0  0  0  0  0  0
    4.9836    0.1940   -1.3121 H   0  0  0  0  0  0  0  0  0  0  0  0
    4.9836    1.2845    0.0725 H   0  0  0  0  0  0  0  0  0  0  0  0
    4.7653    3.2638   -1.4688 H   0  0  0  0  0  0  0  0  0  0  0  0
    4.7131    2.1891   -2.8484 H   0  0  0  0  0  0  0  0  0  0  0  0
    5.8536    0.5004   -3.7675 H   0  0  0  0  0  0  0  0  0  0  0  0
    7.2746   -0.4815   -3.4283 H   0  0  0  0  0  0  0  0  0  0  0  0
    7.3376    0.8030   -4.6641 H   0  0  0  0  0  0  0  0  0  0  0  0
    9.4082    1.9773   -3.2788 H   0  0  0  0  0  0  0  0  0  0  0  0
    9.3023    0.7872   -1.9651 H   0  0  0  0  0  0  0  0  0  0  0  0
    9.3578    3.7386   -1.7706 H   0  0  0  0  0  0  0  0  0  0  0  0
    9.4648    2.5346   -0.4417 H   0  0  0  0  0  0  0  0  0  0  0  0
  1  2  1  0  0  0  0
  1 13  1  0  0  0  0
  1 14  1  0  0  0  0
  1 15  1  0  0  0  0
  2  3  1  0  0  0  0
  2 16  1  0  0  0  0
  2 17  1  0  0  0  0
  3  4  1  0  0  0  0
  3 18  1  0  0  0  0
  3 19  1  0  0  0  0
  4  5  1  0  0  0  0
  4 20  1  0  0  0  0
  4 21  1  0  0  0  0
  5  6  1  0  0  0  0
  5 22  1  0  0  0  0
  5 23  1  0  0  0  0
  6  7  2  0  0  0  0
  6 11  1  0  0  0  0
  7  8  1  0  0  0  0
  7  9  1  0  0  0  0
  8 24  1  0  0  0  0
  8 25  1  0  0  0  0
  8 26  1  0  0  0  0
  9 10  1  0  0  0  0
  9 27  1  0  0  0  0
  9 28  1  0  0  0  0
 10 11  1  0  0  0  0
 10 29  1  0  0  0  0
 10 30  1  0  0  0  0
 11 12  2  0  0  0  0
M  END
$$$$
