
 OpenBabel07202215583D

 30 30  0  0  0  0  0  0  0  0999 V2000
    0.9407   -0.0474   -0.0589 C   0  0  0  0  0  0  0  0  0  0  0  0
    2.4628   -0.0640   -0.0759 C   0  0  0  0  0  0  0  0  0  0  0  0
    2.9832   -1.0841   -1.0440 C   0  0  0  0  0  0  0  0  0  0  0  0
    4.2966   -1.3165   -1.2292 C   0  0  0  0  0  0  0  0  0  0  0  0
    4.7926   -2.3282   -2.1672 C   0  0  0  0  0  0  0  0  0  0  0  0
    5.8286   -3.1905   -1.7872 C   0  0  0  0  0  0  0  0  0  0  0  0
    6.3574   -4.1271   -2.6921 C   0  0  0  0  0  0  0  0  0  0  0  0
    5.7676   -4.2718   -3.9621 C   0  0  0  0  0  0  0  0  0  0  0  0
    4.7617   -3.3853   -4.3518 C   0  0  0  0  0  0  0  0  0  0  0  0
    4.2907   -2.4125   -3.4686 C   0  0  0  0  0  0  0  0  0  0  0  0
    6.1989   -5.3017   -4.7469 O   0  0  0  0  0  0  0  0  0  0  0  0
    5.5952   -5.5271   -6.0054 C   0  0  0  0  0  0  0  0  0  0  0  0
    7.4472   -4.8167   -2.2081 O   0  0  0  0  0  0  0  0  0  0  0  0
    8.1822   -5.6015   -3.1457 C   0  0  0  0  0  0  0  0  0  0  0  0
    0.5748    0.6946    0.6572 H   0  0  0  0  0  0  0  0  0  0  0  0
    0.5406   -1.0253    0.2304 H   0  0  0  0  0  0  0  0  0  0  0  0
    0.5391    0.2054   -1.0463 H   0  0  0  0  0  0  0  0  0  0  0  0
    2.8265   -0.2937    0.9322 H   0  0  0  0  0  0  0  0  0  0  0  0
    2.8274    0.9325   -0.3510 H   0  0  0  0  0  0  0  0  0  0  0  0
    2.2514   -1.6690   -1.5953 H   0  0  0  0  0  0  0  0  0  0  0  0
    5.0426   -0.7592   -0.6710 H   0  0  0  0  0  0  0  0  0  0  0  0
    6.2284   -3.1452   -0.7759 H   0  0  0  0  0  0  0  0  0  0  0  0
    4.3249   -3.4238   -5.3431 H   0  0  0  0  0  0  0  0  0  0  0  0
    3.5173   -1.7270   -3.8073 H   0  0  0  0  0  0  0  0  0  0  0  0
    6.0632   -6.4207   -6.4299 H   0  0  0  0  0  0  0  0  0  0  0  0
    5.7938   -4.6909   -6.6806 H   0  0  0  0  0  0  0  0  0  0  0  0
    4.5245   -5.7260   -5.9042 H   0  0  0  0  0  0  0  0  0  0  0  0
    9.1132   -5.9351   -2.6810 H   0  0  0  0  0  0  0  0  0  0  0  0
    8.4617   -5.0244   -4.0370 H   0  0  0  0  0  0  0  0  0  0  0  0
    7.6187   -6.5051   -3.4008 H   0  0  0  0  0  0  0  0  0  0  0  0
  1  2  1  0  0  0  0
  1 15  1  0  0  0  0
  1 16  1  0  0  0  0
  1 17  1  0  0  0  0
  2  3  1  0  0  0  0
  2 18  1  0  0  0  0
  2 19  1  0  0  0  0
  3  4  2  0  0  0  0
  3 20  1  0  0  0  0
  4  5  1  0  0  0  0
  4 21  1  0  0  0  0
  5  6  2  0  0  0  0
  5 10  1  0  0  0  0
  6  7  1  0  0  0  0
  6 22  1  0  0  0  0
  7  8  2  0  0  0  0
  7 13  1  0  0  0  0
  8  9  1  0  0  0  0
  8 11  1  0  0  0  0
  9 10  2  0  0  0  0
  9 23  1  0  0  0  0
 10 24  1  0  0  0  0
 11 12  1  0  0  0  0
 12 25  1  0  0  0  0
 12 26  1  0  0  0  0
 12 27  1  0  0  0  0
 13 14  1  0  0  0  0
 14 28  1  0  0  0  0
 14 29  1  0  0  0  0
 14 30  1  0  0  0  0
M  END
$$$$
