
 OpenBabel07222214433D

 34 33  0  0  0  0  0  0  0  0999 V2000
    0.9157   -0.0303   -0.0531 C   0  0  0  0  0  0  0  0  0  0  0  0
    2.4318   -0.0365   -0.0573 C   0  0  0  0  0  0  0  0  0  0  0  0
    2.9555   -1.2221   -0.8555 C   0  0  0  0  0  0  0  0  0  0  0  0
    4.4759   -1.2311   -0.8615 C   0  0  0  0  0  0  0  0  0  0  0  0
    4.9901   -2.4179   -1.6605 C   0  0  0  0  0  0  0  0  0  0  0  0
    6.5096   -2.4263   -1.6661 C   0  0  0  0  0  0  0  0  0  0  0  0
    7.0240   -3.6130   -2.4650 C   0  0  0  0  0  0  0  0  0  0  0  0
    8.5445   -3.6222   -2.4712 C   0  0  0  0  0  0  0  0  0  0  0  0
    9.0677   -4.8080   -3.2696 C   0  0  0  0  0  0  0  0  0  0  0  0
   10.5887   -4.8134   -3.2732 C   0  0  0  0  0  0  0  0  0  0  0  0
   11.1203   -5.9795   -4.0583 C   0  0  0  0  0  0  0  0  0  0  0  0
   12.3228   -6.1893   -4.1995 O   0  0  0  0  0  0  0  0  0  0  0  0
    0.5417    0.8217    0.5205 H   0  0  0  0  0  0  0  0  0  0  0  0
    0.5266   -0.9487    0.3980 H   0  0  0  0  0  0  0  0  0  0  0  0
    0.5266    0.0421   -1.0738 H   0  0  0  0  0  0  0  0  0  0  0  0
    2.8027   -0.0872    0.9731 H   0  0  0  0  0  0  0  0  0  0  0  0
    2.8027    0.8991   -0.4919 H   0  0  0  0  0  0  0  0  0  0  0  0
    2.5826   -1.1725   -1.8860 H   0  0  0  0  0  0  0  0  0  0  0  0
    2.5826   -2.1583   -0.4217 H   0  0  0  0  0  0  0  0  0  0  0  0
    4.8533   -1.2846    0.1670 H   0  0  0  0  0  0  0  0  0  0  0  0
    4.8533   -0.2983   -1.2981 H   0  0  0  0  0  0  0  0  0  0  0  0
    4.6143   -2.3658   -2.6898 H   0  0  0  0  0  0  0  0  0  0  0  0
    4.6143   -3.3520   -1.2250 H   0  0  0  0  0  0  0  0  0  0  0  0
    6.8851   -2.4783   -0.6367 H   0  0  0  0  0  0  0  0  0  0  0  0
    6.8851   -1.4921   -2.1016 H   0  0  0  0  0  0  0  0  0  0  0  0
    6.6465   -3.5594   -3.4936 H   0  0  0  0  0  0  0  0  0  0  0  0
    6.6465   -4.5458   -2.0285 H   0  0  0  0  0  0  0  0  0  0  0  0
    8.9175   -3.6723   -1.4408 H   0  0  0  0  0  0  0  0  0  0  0  0
    8.9175   -2.6863   -2.9054 H   0  0  0  0  0  0  0  0  0  0  0  0
    8.6890   -4.7603   -4.2984 H   0  0  0  0  0  0  0  0  0  0  0  0
    8.6890   -5.7433   -2.8383 H   0  0  0  0  0  0  0  0  0  0  0  0
   10.9664   -4.8883   -2.2482 H   0  0  0  0  0  0  0  0  0  0  0  0
   10.9664   -3.8919   -3.7283 H   0  0  0  0  0  0  0  0  0  0  0  0
   10.3755   -6.6542   -4.5125 H   0  0  0  0  0  0  0  0  0  0  0  0
  1  2  1  0  0  0  0
  1 13  1  0  0  0  0
  1 14  1  0  0  0  0
  1 15  1  0  0  0  0
  2  3  1  0  0  0  0
  2 16  1  0  0  0  0
  2 17  1  0  0  0  0
  3  4  1  0  0  0  0
  3 18  1  0  0  0  0
  3 19  1  0  0  0  0
  4  5  1  0  0  0  0
  4 20  1  0  0  0  0
  4 21  1  0  0  0  0
  5  6  1  0  0  0  0
  5 22  1  0  0  0  0
  5 23  1  0  0  0  0
  6  7  1  0  0  0  0
  6 24  1  0  0  0  0
  6 25  1  0  0  0  0
  7  8  1  0  0  0  0
  7 26  1  0  0  0  0
  7 27  1  0  0  0  0
  8  9  1  0  0  0  0
  8 28  1  0  0  0  0
  8 29  1  0  0  0  0
  9 10  1  0  0  0  0
  9 30  1  0  0  0  0
  9 31  1  0  0  0  0
 10 11  1  0  0  0  0
 10 32  1  0  0  0  0
 10 33  1  0  0  0  0
 11 12  2  0  0  0  0
 11 34  1  0  0  0  0
M  END
$$$$
