
 OpenBabel07122215493D

 35 34  0  0  0  0  0  0  0  0999 V2000
    1.0591    0.0534   -0.0613 C   0  0  0  0  0  0  0  0  0  0  0  0
    2.5818    0.0334   -0.0522 C   0  0  0  0  0  0  0  0  0  0  0  0
    3.1284   -1.2770    0.5301 C   0  0  0  0  0  0  0  0  0  0  0  0
    4.6620   -1.3045    0.5453 C   0  0  0  0  0  0  0  0  0  0  0  0
    5.1497   -2.5494    1.1029 O   0  0  0  0  0  0  0  0  0  0  0  0
    6.5214   -2.6593    1.1404 C   0  0  0  0  0  0  0  0  0  0  0  0
    7.2783   -1.7679    0.7684 O   0  0  0  0  0  0  0  0  0  0  0  0
    6.9931   -4.0186    1.7177 C   0  0  0  0  0  0  0  0  0  0  0  0
    6.4276   -5.1534    0.8644 C   0  0  0  0  0  0  0  0  0  0  0  0
    8.4516   -4.0763    1.7253 O   0  0  0  0  0  0  0  0  0  0  0  0
    9.0270   -5.1674    2.3059 C   0  0  0  0  0  0  0  0  0  0  0  0
    8.3972   -6.0846    2.8243 O   0  0  0  0  0  0  0  0  0  0  0  0
   10.5431   -5.1239    2.2454 C   0  0  0  0  0  0  0  0  0  0  0  0
   11.1306   -6.4245    2.8138 C   0  0  0  0  0  0  0  0  0  0  0  0
   12.6490   -6.4376    2.8174 C   0  0  0  0  0  0  0  0  0  0  0  0
    0.6889    0.9958   -0.4794 H   0  0  0  0  0  0  0  0  0  0  0  0
    0.6602   -0.0452    0.9533 H   0  0  0  0  0  0  0  0  0  0  0  0
    0.6603   -0.7649   -0.6692 H   0  0  0  0  0  0  0  0  0  0  0  0
    2.9444    0.8861    0.5341 H   0  0  0  0  0  0  0  0  0  0  0  0
    2.9447    0.1704   -1.0780 H   0  0  0  0  0  0  0  0  0  0  0  0
    2.7505   -2.1262   -0.0524 H   0  0  0  0  0  0  0  0  0  0  0  0
    2.7482   -1.4155    1.5494 H   0  0  0  0  0  0  0  0  0  0  0  0
    5.0309   -0.4693    1.1519 H   0  0  0  0  0  0  0  0  0  0  0  0
    5.0327   -1.2000   -0.4814 H   0  0  0  0  0  0  0  0  0  0  0  0
    6.6409   -4.0742    2.7559 H   0  0  0  0  0  0  0  0  0  0  0  0
    6.7971   -5.0764   -0.1630 H   0  0  0  0  0  0  0  0  0  0  0  0
    5.3346   -5.1435    0.8495 H   0  0  0  0  0  0  0  0  0  0  0  0
    6.7312   -6.1394    1.2265 H   0  0  0  0  0  0  0  0  0  0  0  0
   10.8966   -4.2718    2.8357 H   0  0  0  0  0  0  0  0  0  0  0  0
   10.8680   -5.0007    1.2061 H   0  0  0  0  0  0  0  0  0  0  0  0
   10.7683   -7.2808    2.2308 H   0  0  0  0  0  0  0  0  0  0  0  0
   10.7746   -6.5734    3.8410 H   0  0  0  0  0  0  0  0  0  0  0  0
   13.0455   -6.3415    1.8024 H   0  0  0  0  0  0  0  0  0  0  0  0
   13.0163   -7.3815    3.2359 H   0  0  0  0  0  0  0  0  0  0  0  0
   13.0466   -5.6213    3.4277 H   0  0  0  0  0  0  0  0  0  0  0  0
  1  2  1  0  0  0  0
  1 16  1  0  0  0  0
  1 17  1  0  0  0  0
  1 18  1  0  0  0  0
  2  3  1  0  0  0  0
  2 19  1  0  0  0  0
  2 20  1  0  0  0  0
  3  4  1  0  0  0  0
  3 21  1  0  0  0  0
  3 22  1  0  0  0  0
  4  5  1  0  0  0  0
  4 23  1  0  0  0  0
  4 24  1  0  0  0  0
  5  6  1  0  0  0  0
  6  7  2  0  0  0  0
  6  8  1  0  0  0  0
  8  9  1  0  0  0  0
  8 10  1  0  0  0  0
  8 25  1  0  0  0  0
  9 26  1  0  0  0  0
  9 27  1  0  0  0  0
  9 28  1  0  0  0  0
 10 11  1  0  0  0  0
 11 12  2  0  0  0  0
 11 13  1  0  0  0  0
 13 14  1  0  0  0  0
 13 29  1  0  0  0  0
 13 30  1  0  0  0  0
 14 15  1  0  0  0  0
 14 31  1  0  0  0  0
 14 32  1  0  0  0  0
 15 33  1  0  0  0  0
 15 34  1  0  0  0  0
 15 35  1  0  0  0  0
M  END
$$$$
