
 OpenBabel07222214433D

 26 25  0  0  0  0  0  0  0  0999 V2000
    1.0598   -0.0000   -0.0774 C   0  0  0  0  0  0  0  0  0  0  0  0
    2.5786    0.0091   -0.0693 C   0  0  0  0  0  0  0  0  0  0  0  0
    3.1089    1.0827    0.8785 C   0  0  0  0  0  0  0  0  0  0  0  0
    4.6360    1.0997    0.8935 C   0  0  0  0  0  0  0  0  0  0  0  0
    5.1703    2.1742    1.8423 C   0  0  0  0  0  0  0  0  0  0  0  0
    6.6977    2.1927    1.8586 C   0  0  0  0  0  0  0  0  0  0  0  0
    7.1618    3.2139    2.7602 O   0  0  0  0  0  0  0  0  0  0  0  0
    8.5198    3.3037    2.8395 C   0  0  0  0  0  0  0  0  0  0  0  0
    9.3076    2.5995    2.2178 O   0  0  0  0  0  0  0  0  0  0  0  0
    8.9598    4.3804    3.7901 C   0  0  0  0  0  0  0  0  0  0  0  0
    0.6865   -0.7707   -0.7579 H   0  0  0  0  0  0  0  0  0  0  0  0
    0.6676    0.9676   -0.4066 H   0  0  0  0  0  0  0  0  0  0  0  0
    0.6676   -0.2068    0.9235 H   0  0  0  0  0  0  0  0  0  0  0  0
    2.9465    0.1916   -1.0858 H   0  0  0  0  0  0  0  0  0  0  0  0
    2.9465   -0.9769    0.2376 H   0  0  0  0  0  0  0  0  0  0  0  0
    2.7316    0.8965    1.8915 H   0  0  0  0  0  0  0  0  0  0  0  0
    2.7316    2.0648    0.5682 H   0  0  0  0  0  0  0  0  0  0  0  0
    5.0082    1.2827   -0.1220 H   0  0  0  0  0  0  0  0  0  0  0  0
    5.0082    0.1147    1.2009 H   0  0  0  0  0  0  0  0  0  0  0  0
    4.7929    2.0001    2.8574 H   0  0  0  0  0  0  0  0  0  0  0  0
    4.7929    3.1600    1.5438 H   0  0  0  0  0  0  0  0  0  0  0  0
    7.0715    2.4018    0.8492 H   0  0  0  0  0  0  0  0  0  0  0  0
    7.0715    1.2171    2.1911 H   0  0  0  0  0  0  0  0  0  0  0  0
    8.1070    4.8932    4.2429 H   0  0  0  0  0  0  0  0  0  0  0  0
    9.5584    5.1183    3.2483 H   0  0  0  0  0  0  0  0  0  0  0  0
    9.5585    3.9342    4.5895 H   0  0  0  0  0  0  0  0  0  0  0  0
  1  2  1  0  0  0  0
  1 11  1  0  0  0  0
  1 12  1  0  0  0  0
  1 13  1  0  0  0  0
  2  3  1  0  0  0  0
  2 14  1  0  0  0  0
  2 15  1  0  0  0  0
  3  4  1  0  0  0  0
  3 16  1  0  0  0  0
  3 17  1  0  0  0  0
  4  5  1  0  0  0  0
  4 18  1  0  0  0  0
  4 19  1  0  0  0  0
  5  6  1  0  0  0  0
  5 20  1  0  0  0  0
  5 21  1  0  0  0  0
  6  7  1  0  0  0  0
  6 22  1  0  0  0  0
  6 23  1  0  0  0  0
  7  8  1  0  0  0  0
  8  9  2  0  0  0  0
  8 10  1  0  0  0  0
 10 24  1  0  0  0  0
 10 25  1  0  0  0  0
 10 26  1  0  0  0  0
M  END
$$$$
