
 OpenBabel07202215583D

 24 23  0  0  0  0  0  0  0  0999 V2000
    0.9029    0.0380   -0.0337 C   0  0  0  0  0  0  0  0  0  0  0  0
    2.4212    0.0458   -0.0418 C   0  0  0  0  0  0  0  0  0  0  0  0
    2.9535    1.0436   -1.0651 C   0  0  0  0  0  0  0  0  0  0  0  0
    4.4788    1.0547   -1.0766 C   0  0  0  0  0  0  0  0  0  0  0  0
    5.0013    2.0552   -2.1026 C   0  0  0  0  0  0  0  0  0  0  0  0
    6.5246    2.0743   -2.1210 C   0  0  0  0  0  0  0  0  0  0  0  0
    7.0445    3.0735   -3.1428 C   0  0  0  0  0  0  0  0  0  0  0  0
    8.4650    3.0652   -3.1434 O   0  0  0  0  0  0  0  0  0  0  0  0
    0.5307   -0.6800    0.7026 H   0  0  0  0  0  0  0  0  0  0  0  0
    0.5100   -0.2431   -1.0161 H   0  0  0  0  0  0  0  0  0  0  0  0
    0.5101    1.0272    0.2226 H   0  0  0  0  0  0  0  0  0  0  0  0
    2.7896   -0.9601   -0.2746 H   0  0  0  0  0  0  0  0  0  0  0  0
    2.7896    0.3040    0.9579 H   0  0  0  0  0  0  0  0  0  0  0  0
    2.5797    2.0481   -0.8312 H   0  0  0  0  0  0  0  0  0  0  0  0
    2.5796    0.7846   -2.0633 H   0  0  0  0  0  0  0  0  0  0  0  0
    4.8548    0.0518   -1.3127 H   0  0  0  0  0  0  0  0  0  0  0  0
    4.8547    1.3160   -0.0799 H   0  0  0  0  0  0  0  0  0  0  0  0
    4.6223    3.0571   -1.8662 H   0  0  0  0  0  0  0  0  0  0  0  0
    4.6229    1.7935   -3.0984 H   0  0  0  0  0  0  0  0  0  0  0  0
    6.9163    1.0757   -2.3518 H   0  0  0  0  0  0  0  0  0  0  0  0
    6.9130    2.3270   -1.1265 H   0  0  0  0  0  0  0  0  0  0  0  0
    6.7017    4.0880   -2.9146 H   0  0  0  0  0  0  0  0  0  0  0  0
    6.7014    2.8134   -4.1487 H   0  0  0  0  0  0  0  0  0  0  0  0
    8.7576    3.3044   -2.2492 H   0  0  0  0  0  0  0  0  0  0  0  0
  1  2  1  0  0  0  0
  1  9  1  0  0  0  0
  1 10  1  0  0  0  0
  1 11  1  0  0  0  0
  2  3  1  0  0  0  0
  2 12  1  0  0  0  0
  2 13  1  0  0  0  0
  3  4  1  0  0  0  0
  3 14  1  0  0  0  0
  3 15  1  0  0  0  0
  4  5  1  0  0  0  0
  4 16  1  0  0  0  0
  4 17  1  0  0  0  0
  5  6  1  0  0  0  0
  5 18  1  0  0  0  0
  5 19  1  0  0  0  0
  6  7  1  0  0  0  0
  6 20  1  0  0  0  0
  6 21  1  0  0  0  0
  7  8  1  0  0  0  0
  7 22  1  0  0  0  0
  7 23  1  0  0  0  0
  8 24  1  0  0  0  0
M  END
$$$$
