
 OpenBabel07222214433D

 18 18  0  0  0  0  0  0  0  0999 V2000
    0.9982   -0.0833    0.0511 C   0  0  0  0  0  0  0  0  0  0  0  0
    2.4206   -0.1364    0.1160 O   0  0  0  0  0  0  0  0  0  0  0  0
    3.0386   -0.6202   -1.0041 C   0  0  0  0  0  0  0  0  0  0  0  0
    4.1488   -1.4409   -0.7839 C   0  0  0  0  0  0  0  0  0  0  0  0
    4.9107   -1.9107   -1.8584 C   0  0  0  0  0  0  0  0  0  0  0  0
    4.5191   -1.6035   -3.1629 C   0  0  0  0  0  0  0  0  0  0  0  0
    3.4260   -0.7628   -3.3883 C   0  0  0  0  0  0  0  0  0  0  0  0
    2.6928   -0.2626   -2.3076 C   0  0  0  0  0  0  0  0  0  0  0  0
    5.2295   -2.2166   -4.3032 C   0  0  0  0  0  0  0  0  0  0  0  0
    4.8873   -2.0187   -5.4660 O   0  0  0  0  0  0  0  0  0  0  0  0
    0.6400    0.3551    0.9884 H   0  0  0  0  0  0  0  0  0  0  0  0
    0.5849   -1.0937   -0.0289 H   0  0  0  0  0  0  0  0  0  0  0  0
    0.6312    0.5521   -0.7597 H   0  0  0  0  0  0  0  0  0  0  0  0
    4.4124   -1.7258    0.2322 H   0  0  0  0  0  0  0  0  0  0  0  0
    5.7941   -2.5126   -1.6632 H   0  0  0  0  0  0  0  0  0  0  0  0
    3.1453   -0.4915   -4.4041 H   0  0  0  0  0  0  0  0  0  0  0  0
    1.8715    0.4160   -2.5109 H   0  0  0  0  0  0  0  0  0  0  0  0
    6.0665   -2.8916   -4.0632 H   0  0  0  0  0  0  0  0  0  0  0  0
  1  2  1  0  0  0  0
  1 11  1  0  0  0  0
  1 12  1  0  0  0  0
  1 13  1  0  0  0  0
  2  3  1  0  0  0  0
  3  4  2  0  0  0  0
  3  8  1  0  0  0  0
  4  5  1  0  0  0  0
  4 14  1  0  0  0  0
  5  6  2  0  0  0  0
  5 15  1  0  0  0  0
  6  7  1  0  0  0  0
  6  9  1  0  0  0  0
  7  8  2  0  0  0  0
  7 16  1  0  0  0  0
  8 17  1  0  0  0  0
  9 10  2  0  0  0  0
  9 18  1  0  0  0  0
M  END
$$$$
