
 OpenBabel07202215583D

 27 26  0  0  0  0  0  0  0  0999 V2000
    1.0643    0.0316   -0.0686 C   0  0  0  0  0  0  0  0  0  0  0  0
    2.5829    0.0342   -0.0569 C   0  0  0  0  0  0  0  0  0  0  0  0
    3.1134    0.3499    1.3391 C   0  0  0  0  0  0  0  0  0  0  0  0
    4.6424    0.3543    1.3583 C   0  0  0  0  0  0  0  0  0  0  0  0
    5.1725    0.6634    2.7253 C   0  0  0  0  0  0  0  0  0  0  0  0
    6.4822    0.7281    3.0114 C   0  0  0  0  0  0  0  0  0  0  0  0
    6.9166    1.0433    4.4054 C   0  0  0  0  0  0  0  0  0  0  0  0
    6.0761    1.2419    5.2839 O   0  0  0  0  0  0  0  0  0  0  0  0
    8.4249    1.0999    4.6558 C   0  0  0  0  0  0  0  0  0  0  0  0
    8.7435    1.4243    6.0905 C   0  0  0  0  0  0  0  0  0  0  0  0
    9.9872    1.5335    6.5733 C   0  0  0  0  0  0  0  0  0  0  0  0
    0.6914   -0.1952   -1.0715 H   0  0  0  0  0  0  0  0  0  0  0  0
    0.6717    1.0087    0.2306 H   0  0  0  0  0  0  0  0  0  0  0  0
    0.6717   -0.7218    0.6219 H   0  0  0  0  0  0  0  0  0  0  0  0
    2.9513    0.7774   -0.7737 H   0  0  0  0  0  0  0  0  0  0  0  0
    2.9513   -0.9450   -0.3842 H   0  0  0  0  0  0  0  0  0  0  0  0
    2.7332   -0.3931    2.0523 H   0  0  0  0  0  0  0  0  0  0  0  0
    2.7332    1.3275    1.6632 H   0  0  0  0  0  0  0  0  0  0  0  0
    5.0103    1.1038    0.6478 H   0  0  0  0  0  0  0  0  0  0  0  0
    5.0103   -0.6281    1.0394 H   0  0  0  0  0  0  0  0  0  0  0  0
    4.4438    0.8424    3.5168 H   0  0  0  0  0  0  0  0  0  0  0  0
    7.2445    0.5584    2.2612 H   0  0  0  0  0  0  0  0  0  0  0  0
    8.8519    1.8702    4.0032 H   0  0  0  0  0  0  0  0  0  0  0  0
    8.8519    0.1238    4.3981 H   0  0  0  0  0  0  0  0  0  0  0  0
    7.9104    1.5795    6.7764 H   0  0  0  0  0  0  0  0  0  0  0  0
   10.8598    1.3916    5.9455 H   0  0  0  0  0  0  0  0  0  0  0  0
   10.1487    1.7705    7.6213 H   0  0  0  0  0  0  0  0  0  0  0  0
  1  2  1  0  0  0  0
  1 12  1  0  0  0  0
  1 13  1  0  0  0  0
  1 14  1  0  0  0  0
  2  3  1  0  0  0  0
  2 15  1  0  0  0  0
  2 16  1  0  0  0  0
  3  4  1  0  0  0  0
  3 17  1  0  0  0  0
  3 18  1  0  0  0  0
  4  5  1  0  0  0  0
  4 19  1  0  0  0  0
  4 20  1  0  0  0  0
  5  6  2  0  0  0  0
  5 21  1  0  0  0  0
  6  7  1  0  0  0  0
  6 22  1  0  0  0  0
  7  8  2  0  0  0  0
  7  9  1  0  0  0  0
  9 10  1  0  0  0  0
  9 23  1  0  0  0  0
  9 24  1  0  0  0  0
 10 11  2  0  0  0  0
 10 25  1  0  0  0  0
 11 26  1  0  0  0  0
 11 27  1  0  0  0  0
M  END
$$$$
