
 OpenBabel07202215583D

 30 29  0  0  0  0  0  0  0  0999 V2000
    0.8981   -0.0813    0.0183 C   0  0  0  0  0  0  0  0  0  0  0  0
    2.4254   -0.0757   -0.0194 C   0  0  0  0  0  0  0  0  0  0  0  0
    2.9073   -0.1822   -1.4679 C   0  0  0  0  0  0  0  0  0  0  0  0
    2.9563    1.1897    0.6711 C   0  0  0  0  0  0  0  0  0  0  0  0
    4.4805    1.2242    0.7136 C   0  0  0  0  0  0  0  0  0  0  0  0
    4.9881    2.4901    1.3861 C   0  0  0  0  0  0  0  0  0  0  0  0
    6.5119    2.4979    1.3774 C   0  0  0  0  0  0  0  0  0  0  0  0
    7.0477    3.7608    2.0319 C   0  0  0  0  0  0  0  0  0  0  0  0
    8.5672    3.7668    2.0290 C   0  0  0  0  0  0  0  0  0  0  0  0
    9.0399    4.9519    2.6532 O   0  0  0  0  0  0  0  0  0  0  0  0
    0.5031   -0.9909   -0.4451 H   0  0  0  0  0  0  0  0  0  0  0  0
    0.4880    0.7805   -0.5194 H   0  0  0  0  0  0  0  0  0  0  0  0
    0.5325   -0.0428    1.0497 H   0  0  0  0  0  0  0  0  0  0  0  0
    2.7859   -0.9537    0.5319 H   0  0  0  0  0  0  0  0  0  0  0  0
    2.6016    0.6953   -2.0477 H   0  0  0  0  0  0  0  0  0  0  0  0
    2.4977   -1.0744   -1.9503 H   0  0  0  0  0  0  0  0  0  0  0  0
    3.9966   -0.2649   -1.5284 H   0  0  0  0  0  0  0  0  0  0  0  0
    2.5690    1.2353    1.6975 H   0  0  0  0  0  0  0  0  0  0  0  0
    2.5824    2.0825    0.1539 H   0  0  0  0  0  0  0  0  0  0  0  0
    4.8920    1.1953   -0.3003 H   0  0  0  0  0  0  0  0  0  0  0  0
    4.8557    0.3401    1.2433 H   0  0  0  0  0  0  0  0  0  0  0  0
    4.6142    2.5465    2.4149 H   0  0  0  0  0  0  0  0  0  0  0  0
    4.6100    3.3694    0.8501 H   0  0  0  0  0  0  0  0  0  0  0  0
    6.8762    2.4336    0.3440 H   0  0  0  0  0  0  0  0  0  0  0  0
    6.8885    1.6134    1.9058 H   0  0  0  0  0  0  0  0  0  0  0  0
    6.6794    3.8407    3.0619 H   0  0  0  0  0  0  0  0  0  0  0  0
    6.6717    4.6475    1.5066 H   0  0  0  0  0  0  0  0  0  0  0  0
    8.9613    3.7283    1.0082 H   0  0  0  0  0  0  0  0  0  0  0  0
    8.9591    2.9075    2.5810 H   0  0  0  0  0  0  0  0  0  0  0  0
    8.6843    5.7034    2.1549 H   0  0  0  0  0  0  0  0  0  0  0  0
  1  2  1  0  0  0  0
  1 11  1  0  0  0  0
  1 12  1  0  0  0  0
  1 13  1  0  0  0  0
  2  3  1  0  0  0  0
  2  4  1  0  0  0  0
  2 14  1  0  0  0  0
  3 15  1  0  0  0  0
  3 16  1  0  0  0  0
  3 17  1  0  0  0  0
  4  5  1  0  0  0  0
  4 18  1  0  0  0  0
  4 19  1  0  0  0  0
  5  6  1  0  0  0  0
  5 20  1  0  0  0  0
  5 21  1  0  0  0  0
  6  7  1  0  0  0  0
  6 22  1  0  0  0  0
  6 23  1  0  0  0  0
  7  8  1  0  0  0  0
  7 24  1  0  0  0  0
  7 25  1  0  0  0  0
  8  9  1  0  0  0  0
  8 26  1  0  0  0  0
  8 27  1  0  0  0  0
  9 10  1  0  0  0  0
  9 28  1  0  0  0  0
  9 29  1  0  0  0  0
 10 30  1  0  0  0  0
M  END
$$$$
