
 OpenBabel07202215583D

 25 25  0  0  0  0  0  0  0  0999 V2000
    0.8988   -0.0955   -0.0135 C   0  0  0  0  0  0  0  0  0  0  0  0
    2.3151   -0.0639   -0.0767 O   0  0  0  0  0  0  0  0  0  0  0  0
    2.9986   -0.8970    0.7648 C   0  0  0  0  0  0  0  0  0  0  0  0
    4.1888   -0.4484    1.3576 C   0  0  0  0  0  0  0  0  0  0  0  0
    5.0752   -1.3944    1.9347 C   0  0  0  0  0  0  0  0  0  0  0  0
    4.7205   -2.7563    2.0641 C   0  0  0  0  0  0  0  0  0  0  0  0
    3.4939   -3.1419    1.5019 C   0  0  0  0  0  0  0  0  0  0  0  0
    2.6467   -2.2353    0.8700 C   0  0  0  0  0  0  0  0  0  0  0  0
    5.6037   -3.7480    2.8395 C   0  0  0  0  0  0  0  0  0  0  0  0
    4.8688   -5.4272    2.9483 S   0  0  0  0  0  0  0  0  0  0  0  0
    5.9492   -6.3237    3.8604 C   0  0  0  0  0  0  0  0  0  0  0  0
    6.6170   -7.0518    4.4768 N   0  0  0  0  0  0  0  0  0  0  0  0
    4.5784    0.8715    1.4631 O   0  0  0  0  0  0  0  0  0  0  0  0
    3.6142    1.8643    1.0897 C   0  0  0  0  0  0  0  0  0  0  0  0
    0.5376    0.6747   -0.7026 H   0  0  0  0  0  0  0  0  0  0  0  0
    0.5467    0.1579    0.9909 H   0  0  0  0  0  0  0  0  0  0  0  0
    0.4949   -1.0513   -0.3518 H   0  0  0  0  0  0  0  0  0  0  0  0
    6.0533   -1.0515    2.2719 H   0  0  0  0  0  0  0  0  0  0  0  0
    3.1607   -4.1750    1.5042 H   0  0  0  0  0  0  0  0  0  0  0  0
    1.7328   -2.6186    0.4332 H   0  0  0  0  0  0  0  0  0  0  0  0
    5.7271   -3.3586    3.8579 H   0  0  0  0  0  0  0  0  0  0  0  0
    6.5910   -3.8066    2.3673 H   0  0  0  0  0  0  0  0  0  0  0  0
    3.9953    2.8564    1.3473 H   0  0  0  0  0  0  0  0  0  0  0  0
    2.6586    1.7434    1.6196 H   0  0  0  0  0  0  0  0  0  0  0  0
    3.4758    1.8688    0.0039 H   0  0  0  0  0  0  0  0  0  0  0  0
  1  2  1  0  0  0  0
  1 15  1  0  0  0  0
  1 16  1  0  0  0  0
  1 17  1  0  0  0  0
  2  3  1  0  0  0  0
  3  4  2  0  0  0  0
  3  8  1  0  0  0  0
  4  5  1  0  0  0  0
  4 13  1  0  0  0  0
  5  6  2  0  0  0  0
  5 18  1  0  0  0  0
  6  7  1  0  0  0  0
  6  9  1  0  0  0  0
  7  8  2  0  0  0  0
  7 19  1  0  0  0  0
  8 20  1  0  0  0  0
  9 10  1  0  0  0  0
  9 21  1  0  0  0  0
  9 22  1  0  0  0  0
 10 11  1  0  0  0  0
 11 12  3  0  0  0  0
 13 14  1  0  0  0  0
 14 23  1  0  0  0  0
 14 24  1  0  0  0  0
 14 25  1  0  0  0  0
M  END
$$$$
