
 OpenBabel07222214433D

 19 18  0  0  0  0  0  0  0  0999 V2000
    0.9382    0.0112   -0.0978 C   0  0  0  0  0  0  0  0  0  0  0  0
    2.4541    0.0067   -0.1034 C   0  0  0  0  0  0  0  0  0  0  0  0
    3.0161   -0.9242   -1.1394 C   0  0  0  0  0  0  0  0  0  0  0  0
    4.3366   -1.0909   -1.3229 C   0  0  0  0  0  0  0  0  0  0  0  0
    5.3642   -0.3602   -0.5076 C   0  0  0  0  0  0  0  0  0  0  0  0
    6.7918   -0.7098   -0.9028 C   0  0  0  0  0  0  0  0  0  0  0  0
    7.7119    0.0130   -0.0931 O   0  0  0  0  0  0  0  0  0  0  0  0
    0.5711    0.7010    0.6682 H   0  0  0  0  0  0  0  0  0  0  0  0
    0.5453   -0.9865    0.1221 H   0  0  0  0  0  0  0  0  0  0  0  0
    0.5449    0.3337   -1.0670 H   0  0  0  0  0  0  0  0  0  0  0  0
    2.8089   -0.2931    0.8899 H   0  0  0  0  0  0  0  0  0  0  0  0
    2.8084    1.0263   -0.2963 H   0  0  0  0  0  0  0  0  0  0  0  0
    2.3236   -1.4873   -1.7616 H   0  0  0  0  0  0  0  0  0  0  0  0
    4.6771   -1.7850   -2.0882 H   0  0  0  0  0  0  0  0  0  0  0  0
    5.2271   -0.5861    0.5575 H   0  0  0  0  0  0  0  0  0  0  0  0
    5.2224    0.7226   -0.6179 H   0  0  0  0  0  0  0  0  0  0  0  0
    6.9827   -0.4618   -1.9518 H   0  0  0  0  0  0  0  0  0  0  0  0
    6.9803   -1.7784   -0.7605 H   0  0  0  0  0  0  0  0  0  0  0  0
    7.5363    0.9603   -0.2275 H   0  0  0  0  0  0  0  0  0  0  0  0
  1  2  1  0  0  0  0
  1  8  1  0  0  0  0
  1  9  1  0  0  0  0
  1 10  1  0  0  0  0
  2  3  1  0  0  0  0
  2 11  1  0  0  0  0
  2 12  1  0  0  0  0
  3  4  2  0  0  0  0
  3 13  1  0  0  0  0
  4  5  1  0  0  0  0
  4 14  1  0  0  0  0
  5  6  1  0  0  0  0
  5 15  1  0  0  0  0
  5 16  1  0  0  0  0
  6  7  1  0  0  0  0
  6 17  1  0  0  0  0
  6 18  1  0  0  0  0
  7 19  1  0  0  0  0
M  END
$$$$
