
 OpenBabel07122215493D

 19 19  0  0  0  0  0  0  0  0999 V2000
    0.9541   -0.2058   -0.0875 C   0  0  0  0  0  0  0  0  0  0  0  0
    2.4770   -0.0786   -0.0757 C   0  0  0  0  0  0  0  0  0  0  0  0
    2.9428    1.1719   -0.7843 C   0  0  0  0  0  0  0  0  0  0  0  0
    3.7858    1.0850   -1.9040 C   0  0  0  0  0  0  0  0  0  0  0  0
    4.1393    2.2389   -2.6109 C   0  0  0  0  0  0  0  0  0  0  0  0
    3.6530    3.4810   -2.2121 C   0  0  0  0  0  0  0  0  0  0  0  0
    2.8445    3.5860   -1.0807 C   0  0  0  0  0  0  0  0  0  0  0  0
    2.5216    2.4365   -0.3630 C   0  0  0  0  0  0  0  0  0  0  0  0
    1.7827    2.5389    0.7833 O   0  0  0  0  0  0  0  0  0  0  0  0
    0.6401   -1.1242    0.4148 H   0  0  0  0  0  0  0  0  0  0  0  0
    0.5718   -0.2170   -1.1137 H   0  0  0  0  0  0  0  0  0  0  0  0
    0.4593    0.6215    0.4299 H   0  0  0  0  0  0  0  0  0  0  0  0
    2.9001   -0.9685   -0.5578 H   0  0  0  0  0  0  0  0  0  0  0  0
    2.8545   -0.0706    0.9535 H   0  0  0  0  0  0  0  0  0  0  0  0
    4.1646    0.1233   -2.2397 H   0  0  0  0  0  0  0  0  0  0  0  0
    4.7877    2.1640   -3.4815 H   0  0  0  0  0  0  0  0  0  0  0  0
    3.9120    4.3744   -2.7748 H   0  0  0  0  0  0  0  0  0  0  0  0
    2.4828    4.5581   -0.7691 H   0  0  0  0  0  0  0  0  0  0  0  0
    1.3722    3.4147    0.8189 H   0  0  0  0  0  0  0  0  0  0  0  0
  1  2  1  0  0  0  0
  1 10  1  0  0  0  0
  1 11  1  0  0  0  0
  1 12  1  0  0  0  0
  2  3  1  0  0  0  0
  2 13  1  0  0  0  0
  2 14  1  0  0  0  0
  3  4  2  0  0  0  0
  3  8  1  0  0  0  0
  4  5  1  0  0  0  0
  4 15  1  0  0  0  0
  5  6  2  0  0  0  0
  5 16  1  0  0  0  0
  6  7  1  0  0  0  0
  6 17  1  0  0  0  0
  7  8  2  0  0  0  0
  7 18  1  0  0  0  0
  8  9  1  0  0  0  0
  9 19  1  0  0  0  0
M  END
$$$$
