
 OpenBabel07122215493D

 27 26  0  0  0  0  0  0  0  0999 V2000
    1.0552   -0.0488   -0.0344 C   0  0  0  0  0  0  0  0  0  0  0  0
    2.5731   -0.0379   -0.0380 C   0  0  0  0  0  0  0  0  0  0  0  0
    3.1029    1.3208   -0.4828 C   0  0  0  0  0  0  0  0  0  0  0  0
    4.6267    1.3363   -0.4878 C   0  0  0  0  0  0  0  0  0  0  0  0
    5.1481    2.6980   -0.9335 C   0  0  0  0  0  0  0  0  0  0  0  0
    6.6719    2.7128   -0.9383 C   0  0  0  0  0  0  0  0  0  0  0  0
    7.2017    4.0696   -1.3834 C   0  0  0  0  0  0  0  0  0  0  0  0
    8.7221    4.0823   -1.3897 C   0  0  0  0  0  0  0  0  0  0  0  0
    9.1899    5.3587   -1.8015 O   0  0  0  0  0  0  0  0  0  0  0  0
    0.6833   -1.0262    0.2855 H   0  0  0  0  0  0  0  0  0  0  0  0
    0.6627    0.1573   -1.0354 H   0  0  0  0  0  0  0  0  0  0  0  0
    0.6627    0.7093    0.6508 H   0  0  0  0  0  0  0  0  0  0  0  0
    2.9423   -0.8210   -0.7105 H   0  0  0  0  0  0  0  0  0  0  0  0
    2.9423   -0.2717    0.9674 H   0  0  0  0  0  0  0  0  0  0  0  0
    2.7291    2.1026    0.1898 H   0  0  0  0  0  0  0  0  0  0  0  0
    2.7292    1.5535   -1.4876 H   0  0  0  0  0  0  0  0  0  0  0  0
    5.0036    0.5570   -1.1616 H   0  0  0  0  0  0  0  0  0  0  0  0
    5.0035    1.1062    0.5164 H   0  0  0  0  0  0  0  0  0  0  0  0
    4.7715    3.4775   -0.2599 H   0  0  0  0  0  0  0  0  0  0  0  0
    4.7715    2.9281   -1.9377 H   0  0  0  0  0  0  0  0  0  0  0  0
    7.0453    1.9310   -1.6110 H   0  0  0  0  0  0  0  0  0  0  0  0
    7.0456    2.4807    0.0665 H   0  0  0  0  0  0  0  0  0  0  0  0
    6.8300    4.8611   -0.7207 H   0  0  0  0  0  0  0  0  0  0  0  0
    6.8255    4.3144   -2.3845 H   0  0  0  0  0  0  0  0  0  0  0  0
    9.1213    3.3268   -2.0741 H   0  0  0  0  0  0  0  0  0  0  0  0
    9.1153    3.8807   -0.3887 H   0  0  0  0  0  0  0  0  0  0  0  0
    8.8402    5.5231   -2.6917 H   0  0  0  0  0  0  0  0  0  0  0  0
  1  2  1  0  0  0  0
  1 10  1  0  0  0  0
  1 11  1  0  0  0  0
  1 12  1  0  0  0  0
  2  3  1  0  0  0  0
  2 13  1  0  0  0  0
  2 14  1  0  0  0  0
  3  4  1  0  0  0  0
  3 15  1  0  0  0  0
  3 16  1  0  0  0  0
  4  5  1  0  0  0  0
  4 17  1  0  0  0  0
  4 18  1  0  0  0  0
  5  6  1  0  0  0  0
  5 19  1  0  0  0  0
  5 20  1  0  0  0  0
  6  7  1  0  0  0  0
  6 21  1  0  0  0  0
  6 22  1  0  0  0  0
  7  8  1  0  0  0  0
  7 23  1  0  0  0  0
  7 24  1  0  0  0  0
  8  9  1  0  0  0  0
  8 25  1  0  0  0  0
  8 26  1  0  0  0  0
  9 27  1  0  0  0  0
M  END
$$$$
