
 OpenBabel07222214433D

 22 22  0  0  0  0  0  0  0  0999 V2000
    0.9777   -0.0843   -0.0724 C   0  0  0  0  0  0  0  0  0  0  0  0
    2.4986   -0.1319   -0.0835 C   0  0  0  0  0  0  0  0  0  0  0  0
    3.0015   -0.0217   -1.4163 O   0  0  0  0  0  0  0  0  0  0  0  0
    3.1471    1.2250   -1.9695 C   0  0  0  0  0  0  0  0  0  0  0  0
    3.6018    1.1986   -3.3005 C   0  0  0  0  0  0  0  0  0  0  0  0
    3.7934    2.3927   -4.0034 C   0  0  0  0  0  0  0  0  0  0  0  0
    4.2636    2.3716   -5.4042 C   0  0  0  0  0  0  0  0  0  0  0  0
    4.4380    3.4074   -6.0419 O   0  0  0  0  0  0  0  0  0  0  0  0
    3.5406    3.6181   -3.3847 C   0  0  0  0  0  0  0  0  0  0  0  0
    3.0977    3.6541   -2.0644 C   0  0  0  0  0  0  0  0  0  0  0  0
    2.8965    2.4660   -1.3618 C   0  0  0  0  0  0  0  0  0  0  0  0
    2.4367    2.5590   -0.0781 O   0  0  0  0  0  0  0  0  0  0  0  0
    0.5955   -0.1199    0.9515 H   0  0  0  0  0  0  0  0  0  0  0  0
    0.5725   -0.9346   -0.6301 H   0  0  0  0  0  0  0  0  0  0  0  0
    0.5847    0.8150   -0.5575 H   0  0  0  0  0  0  0  0  0  0  0  0
    2.8193   -1.1060    0.3005 H   0  0  0  0  0  0  0  0  0  0  0  0
    2.9666    0.5789    0.6029 H   0  0  0  0  0  0  0  0  0  0  0  0
    3.7979    0.2397   -3.7765 H   0  0  0  0  0  0  0  0  0  0  0  0
    4.4536    1.3867   -5.8590 H   0  0  0  0  0  0  0  0  0  0  0  0
    3.6849    4.5482   -3.9299 H   0  0  0  0  0  0  0  0  0  0  0  0
    2.9060    4.6157   -1.5987 H   0  0  0  0  0  0  0  0  0  0  0  0
    2.3932    3.4837    0.2095 H   0  0  0  0  0  0  0  0  0  0  0  0
  1  2  1  0  0  0  0
  1 13  1  0  0  0  0
  1 14  1  0  0  0  0
  1 15  1  0  0  0  0
  2  3  1  0  0  0  0
  2 16  1  0  0  0  0
  2 17  1  0  0  0  0
  3  4  1  0  0  0  0
  4  5  1  0  0  0  0
  4 11  2  0  0  0  0
  5  6  2  0  0  0  0
  5 18  1  0  0  0  0
  6  7  1  0  0  0  0
  6  9  1  0  0  0  0
  7  8  2  0  0  0  0
  7 19  1  0  0  0  0
  9 10  2  0  0  0  0
  9 20  1  0  0  0  0
 10 11  1  0  0  0  0
 10 21  1  0  0  0  0
 11 12  1  0  0  0  0
 12 22  1  0  0  0  0
M  END
$$$$
