
 OpenBabel07122215493D

 48 51  0  0  1  0  0  0  0  0999 V2000
    0.9317    0.0553   -0.1065 C   0  0  0  0  0  0  0  0  0  0  0  0
    2.4530    0.1941    0.0394 C   0  0  2  0  0  0  0  0  0  0  0  0
    2.9307   -0.2753    1.4294 C   0  0  0  0  0  0  0  0  0  0  0  0
    2.5390   -1.6403    1.7826 C   0  0  0  0  0  0  0  0  0  0  0  0
    3.2619   -2.5817    0.8341 C   0  0  1  0  0  0  0  0  0  0  0  0
    3.0094   -2.0872   -0.6893 C   0  0  1  0  0  0  0  0  0  0  0  0
    3.2138   -3.2614   -1.7077 C   0  0  0  0  0  0  0  0  0  0  0  0
    2.6615   -4.6391   -1.3187 C   0  0  0  0  0  0  0  0  0  0  0  0
    3.2278   -5.1102   -0.0235 C   0  0  1  0  0  0  0  0  0  0  0  0
    4.6315   -5.7039   -0.0509 C   0  0  0  0  0  0  0  0  0  0  0  0
    4.5891   -6.4521    1.2449 C   0  0  0  0  0  0  0  0  0  0  0  0
    4.3431   -7.6887    1.4707 O   0  0  0  0  0  0  0  0  0  0  0  0
    4.3389   -5.5375    2.2959 C   0  0  0  0  0  0  0  0  0  0  0  0
    2.5663   -5.2307    1.9958 C   0  0  0  0  0  0  0  0  0  0  0  0
    2.8618   -4.0164    1.2453 C   0  0  2  0  0  0  0  0  0  0  0  0
    3.1439   -3.8009    3.1203 C   0  0  0  0  0  0  0  0  0  0  0  0
    3.3406   -0.3704   -1.1671 C   0  0  2  0  0  0  0  0  0  0  0  0
    4.2548    1.1866   -1.3759 C   0  0  0  0  0  0  0  0  0  0  0  0
    4.2416    1.6366    0.0175 C   0  0  0  0  0  0  0  0  0  0  0  0
    2.9054    1.6085    0.2138 C   0  0  0  0  0  0  0  0  0  0  0  0
    0.5362   -0.9286    0.1746 H   0  0  0  0  0  0  0  0  0  0  0  0
    0.5967    0.2411   -1.1300 H   0  0  0  0  0  0  0  0  0  0  0  0
    0.4412    0.7604    0.5694 H   0  0  0  0  0  0  0  0  0  0  0  0
    2.5925    0.4032    2.2211 H   0  0  0  0  0  0  0  0  0  0  0  0
    4.0289   -0.3058    1.5157 H   0  0  0  0  0  0  0  0  0  0  0  0
    1.4560   -1.7944    1.8240 H   0  0  0  0  0  0  0  0  0  0  0  0
    2.9084   -1.7071    2.8045 H   0  0  0  0  0  0  0  0  0  0  0  0
    4.3468   -2.4846    0.9398 H   0  0  0  0  0  0  0  0  0  0  0  0
    1.9029   -2.0764   -0.7486 H   0  0  0  0  0  0  0  0  0  0  0  0
    4.2808   -3.3916   -1.8532 H   0  0  0  0  0  0  0  0  0  0  0  0
    2.7155   -3.0540   -2.6594 H   0  0  0  0  0  0  0  0  0  0  0  0
    2.9269   -5.4151   -2.0555 H   0  0  0  0  0  0  0  0  0  0  0  0
    1.5589   -4.6956   -1.2453 H   0  0  0  0  0  0  0  0  0  0  0  0
    2.6603   -6.0739    0.0087 H   0  0  0  0  0  0  0  0  0  0  0  0
    5.2938   -4.8343   -0.0452 H   0  0  0  0  0  0  0  0  0  0  0  0
    4.9110   -6.3718   -0.8624 H   0  0  0  0  0  0  0  0  0  0  0  0
    5.0753   -4.7163    1.9783 H   0  0  0  0  0  0  0  0  0  0  0  0
    4.7510   -5.8250    3.2674 H   0  0  0  0  0  0  0  0  0  0  0  0
    1.6763   -4.8884    2.5927 H   0  0  0  0  0  0  0  0  0  0  0  0
    1.8844   -5.8781    1.4301 H   0  0  0  0  0  0  0  0  0  0  0  0
    2.3137   -3.2385    3.5712 H   0  0  0  0  0  0  0  0  0  0  0  0
    4.1462   -3.4885    3.4164 H   0  0  0  0  0  0  0  0  0  0  0  0
    2.9787   -4.7247    3.8083 H   0  0  0  0  0  0  0  0  0  0  0  0
    3.1391   -0.5000   -2.2412 H   0  0  0  0  0  0  0  0  0  0  0  0
    3.7128    2.0930   -1.8258 H   0  0  0  0  0  0  0  0  0  0  0  0
    5.2832    1.3591   -1.7330 H   0  0  0  0  0  0  0  0  0  0  0  0
    4.9863    0.9372    0.4315 H   0  0  0  0  0  0  0  0  0  0  0  0
    2.2566    2.2492   -0.3907 H   0  0  0  0  0  0  0  0  0  0  0  0
  1 21  1  0  0  0  0
  1 22  1  0  0  0  0
  1 23  1  0  0  0  0
  2  3  1  0  0  0  0
  2 17  1  0  0  0  0
  2 20  1  0  0  0  0
  2  1  1  1  0  0  0
  3  4  1  0  0  0  0
  3 24  1  0  0  0  0
  3 25  1  0  0  0  0
  4  5  1  0  0  0  0
  4 26  1  0  0  0  0
  4 27  1  0  0  0  0
  5  6  1  0  0  0  0
  5 15  1  0  0  0  0
  5 28  1  6  0  0  0
  6  7  1  0  0  0  0
  6 17  1  0  0  0  0
  6 29  1  6  0  0  0
  7  8  1  0  0  0  0
  7 30  1  0  0  0  0
  7 31  1  0  0  0  0
  8  9  1  0  0  0  0
  8 32  1  0  0  0  0
  8 33  1  0  0  0  0
  9 10  1  0  0  0  0
  9 15  1  0  0  0  0
  9 34  1  1  0  0  0
 10 11  1  0  0  0  0
 10 35  1  0  0  0  0
 10 36  1  0  0  0  0
 11 13  1  0  0  0  0
 11 12  2  0  0  0  0
 13 14  1  0  0  0  0
 13 37  1  0  0  0  0
 13 38  1  0  0  0  0
 14 15  1  0  0  0  0
 14 39  1  0  0  0  0
 14 40  1  0  0  0  0
 15 16  1  1  0  0  0
 16 41  1  0  0  0  0
 16 42  1  0  0  0  0
 16 43  1  0  0  0  0
 17 18  1  0  0  0  0
 17 44  1  6  0  0  0
 18 19  1  0  0  0  0
 18 45  1  0  0  0  0
 18 46  1  0  0  0  0
 19 20  2  0  0  0  0
 19 47  1  0  0  0  0
 20 48  1  0  0  0  0
M  END
$$$$
