
 OpenBabel07222214433D

 27 28  0  0  1  0  0  0  0  0999 V2000
    1.0274    0.0944   -0.0408 C   0  0  0  0  0  0  0  0  0  0  0  0
    2.5529    0.0522    0.0188 C   0  0  0  0  0  0  0  0  0  0  0  0
    3.0600    1.4423    0.4005 C   0  0  0  0  0  0  0  0  0  0  0  0
    3.1160   -1.0733    0.9480 C   0  0  1  0  0  0  0  0  0  0  0  0
    2.3994   -2.4147    0.6745 C   0  0  0  0  0  0  0  0  0  0  0  0
    2.9134   -2.8069   -0.7256 C   0  0  0  0  0  0  0  0  0  0  0  0
    3.9579   -1.7168   -1.0331 C   0  0  2  0  0  0  0  0  0  0  0  0
    4.9938   -2.0855   -2.0656 C   0  0  0  0  0  0  0  0  0  0  0  0
    4.5028   -1.3705    0.3528 C   0  0  0  0  0  0  0  0  0  0  0  0
    3.1648   -0.4369   -1.2965 C   0  0  0  0  0  0  0  0  0  0  0  0
    3.0184    0.0970   -2.3888 O   0  0  0  0  0  0  0  0  0  0  0  0
    0.6196    0.3316    0.9481 H   0  0  0  0  0  0  0  0  0  0  0  0
    0.5806   -0.8425   -0.3814 H   0  0  0  0  0  0  0  0  0  0  0  0
    0.6830    0.8511   -0.7521 H   0  0  0  0  0  0  0  0  0  0  0  0
    2.6711    1.7297    1.3846 H   0  0  0  0  0  0  0  0  0  0  0  0
    2.7124    2.1897   -0.3227 H   0  0  0  0  0  0  0  0  0  0  0  0
    4.1503    1.5107    0.4351 H   0  0  0  0  0  0  0  0  0  0  0  0
    3.1365   -0.8008    2.0061 H   0  0  0  0  0  0  0  0  0  0  0  0
    1.3100   -2.3528    0.7131 H   0  0  0  0  0  0  0  0  0  0  0  0
    2.6827   -3.1700    1.4148 H   0  0  0  0  0  0  0  0  0  0  0  0
    2.1009   -2.8101   -1.4614 H   0  0  0  0  0  0  0  0  0  0  0  0
    3.3556   -3.8079   -0.6938 H   0  0  0  0  0  0  0  0  0  0  0  0
    5.5402   -2.9870   -1.7667 H   0  0  0  0  0  0  0  0  0  0  0  0
    5.7248   -1.2812   -2.2016 H   0  0  0  0  0  0  0  0  0  0  0  0
    4.5315   -2.2789   -3.0393 H   0  0  0  0  0  0  0  0  0  0  0  0
    5.1753   -0.5061    0.3506 H   0  0  0  0  0  0  0  0  0  0  0  0
    5.0097   -2.2143    0.8346 H   0  0  0  0  0  0  0  0  0  0  0  0
  1  2  1  0  0  0  0
  1 12  1  0  0  0  0
  1 13  1  0  0  0  0
  1 14  1  0  0  0  0
  2  3  1  0  0  0  0
  2  4  1  0  0  0  0
  2 10  1  0  0  0  0
  3 15  1  0  0  0  0
  3 16  1  0  0  0  0
  3 17  1  0  0  0  0
  4  5  1  0  0  0  0
  4  9  1  0  0  0  0
  4 18  1  1  0  0  0
  5  6  1  0  0  0  0
  5 19  1  0  0  0  0
  5 20  1  0  0  0  0
  6  7  1  0  0  0  0
  6 21  1  0  0  0  0
  6 22  1  0  0  0  0
  7  8  1  6  0  0  0
  7  9  1  0  0  0  0
  7 10  1  0  0  0  0
  8 23  1  0  0  0  0
  8 24  1  0  0  0  0
  8 25  1  0  0  0  0
  9 26  1  0  0  0  0
  9 27  1  0  0  0  0
 10 11  2  0  0  0  0
M  END
$$$$
