
 OpenBabel07222214433D

 18 18  0  0  0  0  0  0  0  0999 V2000
    1.1203   -0.0084   -0.0723 O   0  0  0  0  0  0  0  0  0  0  0  0
    2.3479   -0.0240   -0.0860 C   0  0  0  0  0  0  0  0  0  0  0  0
    3.0943    0.2477   -1.3267 C   0  0  0  0  0  0  0  0  0  0  0  0
    4.4346    0.2364   -1.3594 C   0  0  0  0  0  0  0  0  0  0  0  0
    5.1773    0.5668   -2.5846 C   0  0  0  0  0  0  0  0  0  0  0  0
    6.3129   -0.1674   -2.9478 C   0  0  0  0  0  0  0  0  0  0  0  0
    7.0764    0.2150   -4.0564 C   0  0  0  0  0  0  0  0  0  0  0  0
    6.6778    1.2938   -4.8445 C   0  0  0  0  0  0  0  0  0  0  0  0
    5.5430    2.0216   -4.4996 C   0  0  0  0  0  0  0  0  0  0  0  0
    4.8076    1.6697   -3.3675 C   0  0  0  0  0  0  0  0  0  0  0  0
    2.9424   -0.2296    0.8173 H   0  0  0  0  0  0  0  0  0  0  0  0
    2.4854    0.4638   -2.1970 H   0  0  0  0  0  0  0  0  0  0  0  0
    5.0321    0.0103   -0.4799 H   0  0  0  0  0  0  0  0  0  0  0  0
    6.6121   -1.0470   -2.3823 H   0  0  0  0  0  0  0  0  0  0  0  0
    7.9873   -0.3245   -4.3041 H   0  0  0  0  0  0  0  0  0  0  0  0
    7.2512    1.5686   -5.7261 H   0  0  0  0  0  0  0  0  0  0  0  0
    5.2355    2.8740   -5.0993 H   0  0  0  0  0  0  0  0  0  0  0  0
    3.9439    2.2736   -3.0994 H   0  0  0  0  0  0  0  0  0  0  0  0
  1  2  2  0  0  0  0
  2  3  1  0  0  0  0
  2 11  1  0  0  0  0
  3  4  2  0  0  0  0
  3 12  1  0  0  0  0
  4  5  1  0  0  0  0
  4 13  1  0  0  0  0
  5  6  1  0  0  0  0
  5 10  2  0  0  0  0
  6  7  2  0  0  0  0
  6 14  1  0  0  0  0
  7  8  1  0  0  0  0
  7 15  1  0  0  0  0
  8  9  2  0  0  0  0
  8 16  1  0  0  0  0
  9 10  1  0  0  0  0
  9 17  1  0  0  0  0
 10 18  1  0  0  0  0
M  END
$$$$
