
 OpenBabel07122215493D

 45 45  0  0  0  0  0  0  0  0999 V2000
   -2.0801    2.5207    0.3320 C   0  0  0  0  0  0  0  0  0  0  0  0
   -1.1057    3.3218   -0.5358 C   0  0  0  0  0  0  0  0  0  0  0  0
    0.1879    3.6162    0.2358 C   0  0  0  0  0  0  0  0  0  0  0  0
    1.3745    2.8722   -0.3847 C   0  0  0  0  0  0  0  0  0  0  0  0
    2.4236    2.4688    0.6564 C   0  0  0  0  0  0  0  0  0  0  0  0
    3.3359    1.3618    0.0991 C   0  0  0  0  0  0  0  0  0  0  0  0
    2.6807    0.0357    0.3185 C   0  0  0  0  0  0  0  0  0  0  0  0
    1.6363   -0.0597    0.9605 O   0  0  0  0  0  0  0  0  0  0  0  0
    3.3210   -0.9676   -0.3472 O   0  0  0  0  0  0  0  0  0  0  0  0
    2.6254   -2.2193   -0.6509 C   0  0  0  0  0  0  0  0  0  0  0  0
    1.2497   -2.3137   -0.0021 C   0  0  0  0  0  0  0  0  0  0  0  0
    0.5373   -3.5324   -0.1028 O   0  0  0  0  0  0  0  0  0  0  0  0
   -0.6371   -3.3655    0.5994 C   0  0  0  0  0  0  0  0  0  0  0  0
   -0.7590   -3.6240    1.7882 O   0  0  0  0  0  0  0  0  0  0  0  0
   -1.7381   -2.8670   -0.3117 C   0  0  0  0  0  0  0  0  0  0  0  0
   -2.8417   -2.0996    0.4238 C   0  0  0  0  0  0  0  0  0  0  0  0
   -3.3850   -0.9388   -0.4263 C   0  0  0  0  0  0  0  0  0  0  0  0
   -3.3969    0.3778    0.3579 C   0  0  0  0  0  0  0  0  0  0  0  0
   -2.9028    1.5429   -0.5035 C   0  0  0  0  0  0  0  0  0  0  0  0
   -2.7432    3.2010    0.8792 H   0  0  0  0  0  0  0  0  0  0  0  0
   -1.5165    1.9584    1.0862 H   0  0  0  0  0  0  0  0  0  0  0  0
   -1.5836    4.2558   -0.8482 H   0  0  0  0  0  0  0  0  0  0  0  0
   -0.8786    2.7781   -1.4610 H   0  0  0  0  0  0  0  0  0  0  0  0
    0.0752    3.3429    1.2916 H   0  0  0  0  0  0  0  0  0  0  0  0
    0.3882    4.6923    0.2220 H   0  0  0  0  0  0  0  0  0  0  0  0
    1.8482    3.5147   -1.1367 H   0  0  0  0  0  0  0  0  0  0  0  0
    1.0260    1.9775   -0.9162 H   0  0  0  0  0  0  0  0  0  0  0  0
    1.9216    2.1348    1.5756 H   0  0  0  0  0  0  0  0  0  0  0  0
    3.0202    3.3400    0.9346 H   0  0  0  0  0  0  0  0  0  0  0  0
    4.2974    1.3594    0.6150 H   0  0  0  0  0  0  0  0  0  0  0  0
    3.4751    1.4915   -0.9793 H   0  0  0  0  0  0  0  0  0  0  0  0
    3.2617   -3.0669   -0.3728 H   0  0  0  0  0  0  0  0  0  0  0  0
    2.5399   -2.2479   -1.7446 H   0  0  0  0  0  0  0  0  0  0  0  0
    0.6480   -1.5238   -0.4717 H   0  0  0  0  0  0  0  0  0  0  0  0
    1.3876   -2.1375    1.0674 H   0  0  0  0  0  0  0  0  0  0  0  0
   -2.1545   -3.7347   -0.8264 H   0  0  0  0  0  0  0  0  0  0  0  0
   -1.2768   -2.2192   -1.0643 H   0  0  0  0  0  0  0  0  0  0  0  0
   -2.4791   -1.7403    1.3936 H   0  0  0  0  0  0  0  0  0  0  0  0
   -3.6659   -2.7858    0.6508 H   0  0  0  0  0  0  0  0  0  0  0  0
   -4.4013   -1.1652   -0.7687 H   0  0  0  0  0  0  0  0  0  0  0  0
   -2.7903   -0.8324   -1.3402 H   0  0  0  0  0  0  0  0  0  0  0  0
   -2.7643    0.2878    1.2476 H   0  0  0  0  0  0  0  0  0  0  0  0
   -4.4066    0.5875    0.7288 H   0  0  0  0  0  0  0  0  0  0  0  0
   -3.7487    2.0564   -0.9734 H   0  0  0  0  0  0  0  0  0  0  0  0
   -2.2739    1.1626   -1.3158 H   0  0  0  0  0  0  0  0  0  0  0  0
  1  2  1  0  0  0  0
  1 19  1  0  0  0  0
  1 20  1  0  0  0  0
  1 21  1  0  0  0  0
  2  3  1  0  0  0  0
  2 22  1  0  0  0  0
  2 23  1  0  0  0  0
  3  4  1  0  0  0  0
  3 24  1  0  0  0  0
  3 25  1  0  0  0  0
  4  5  1  0  0  0  0
  4 26  1  0  0  0  0
  4 27  1  0  0  0  0
  5  6  1  0  0  0  0
  5 28  1  0  0  0  0
  5 29  1  0  0  0  0
  6  7  1  0  0  0  0
  6 30  1  0  0  0  0
  6 31  1  0  0  0  0
  7  8  2  0  0  0  0
  7  9  1  0  0  0  0
  9 10  1  0  0  0  0
 10 11  1  0  0  0  0
 10 32  1  0  0  0  0
 10 33  1  0  0  0  0
 11 12  1  0  0  0  0
 11 34  1  0  0  0  0
 11 35  1  0  0  0  0
 12 13  1  0  0  0  0
 13 14  2  0  0  0  0
 13 15  1  0  0  0  0
 15 16  1  0  0  0  0
 15 36  1  0  0  0  0
 15 37  1  0  0  0  0
 16 17  1  0  0  0  0
 16 38  1  0  0  0  0
 16 39  1  0  0  0  0
 17 18  1  0  0  0  0
 17 40  1  0  0  0  0
 17 41  1  0  0  0  0
 18 19  1  0  0  0  0
 18 42  1  0  0  0  0
 18 43  1  0  0  0  0
 19 44  1  0  0  0  0
 19 45  1  0  0  0  0
M  END
$$$$
