
 OpenBabel07122215493D

 18 17  0  0  0  0  0  0  0  0999 V2000
    1.0748    0.0310   -0.0797 C   0  0  0  0  0  0  0  0  0  0  0  0
    2.5929    0.0114   -0.0290 C   0  0  0  0  0  0  0  0  0  0  0  0
    3.0866   -0.5057    1.3051 C   0  0  0  0  0  0  0  0  0  0  0  0
    2.3621   -0.8632    2.2272 O   0  0  0  0  0  0  0  0  0  0  0  0
    4.5942   -0.5763    1.4871 C   0  0  0  0  0  0  0  0  0  0  0  0
    5.3187   -0.2189    0.5650 O   0  0  0  0  0  0  0  0  0  0  0  0
    5.0879   -1.0934    2.8212 C   0  0  0  0  0  0  0  0  0  0  0  0
    6.6060   -1.1131    2.8720 C   0  0  0  0  0  0  0  0  0  0  0  0
    0.7207    0.4051   -1.0447 H   0  0  0  0  0  0  0  0  0  0  0  0
    0.6686    0.6743    0.7082 H   0  0  0  0  0  0  0  0  0  0  0  0
    0.6686   -0.9752    0.0689 H   0  0  0  0  0  0  0  0  0  0  0  0
    2.9766    1.0260   -0.1814 H   0  0  0  0  0  0  0  0  0  0  0  0
    2.9766   -0.6355   -0.8254 H   0  0  0  0  0  0  0  0  0  0  0  0
    4.7042   -2.1080    2.9736 H   0  0  0  0  0  0  0  0  0  0  0  0
    4.7042   -0.4466    3.6177 H   0  0  0  0  0  0  0  0  0  0  0  0
    7.0122   -1.7563    2.0840 H   0  0  0  0  0  0  0  0  0  0  0  0
    6.9601   -1.4871    3.8370 H   0  0  0  0  0  0  0  0  0  0  0  0
    7.0122   -0.1069    2.7234 H   0  0  0  0  0  0  0  0  0  0  0  0
  1  2  1  0  0  0  0
  1  9  1  0  0  0  0
  1 10  1  0  0  0  0
  1 11  1  0  0  0  0
  2  3  1  0  0  0  0
  2 12  1  0  0  0  0
  2 13  1  0  0  0  0
  3  4  2  0  0  0  0
  3  5  1  0  0  0  0
  5  6  2  0  0  0  0
  5  7  1  0  0  0  0
  7  8  1  0  0  0  0
  7 14  1  0  0  0  0
  7 15  1  0  0  0  0
  8 16  1  0  0  0  0
  8 17  1  0  0  0  0
  8 18  1  0  0  0  0
M  END
$$$$
