
 OpenBabel07222214443D

 28 27  0  0  0  0  0  0  0  0999 V2000
    1.0313    0.0075   -0.0777 C   0  0  0  0  0  0  0  0  0  0  0  0
    2.5560   -0.0093   -0.1941 C   0  0  0  0  0  0  0  0  0  0  0  0
    3.0983    1.1118    0.6682 C   0  0  0  0  0  0  0  0  0  0  0  0
    4.6045    1.1708    0.8610 C   0  0  0  0  0  0  0  0  0  0  0  0
    5.0520    2.3186    1.8027 C   0  0  0  0  0  0  0  0  0  0  0  0
    4.5890    2.2311    3.2997 C   0  0  0  0  0  0  0  0  0  0  0  0
    5.1791    3.3778    4.1448 C   0  0  0  0  0  0  0  0  0  0  0  0
    3.0610    2.2945    3.5250 C   0  0  0  0  0  0  0  0  0  0  0  0
    2.7334    2.2586    4.9126 O   0  0  0  0  0  0  0  0  0  0  0  0
    6.9009    2.3680    1.6654 S   0  0  0  0  0  0  0  0  0  0  0  0
    0.5873   -0.8061   -0.6532 H   0  0  0  0  0  0  0  0  0  0  0  0
    0.6233    0.9601   -0.4329 H   0  0  0  0  0  0  0  0  0  0  0  0
    0.7150   -0.1103    0.9679 H   0  0  0  0  0  0  0  0  0  0  0  0
    2.8772    0.0956   -1.2317 H   0  0  0  0  0  0  0  0  0  0  0  0
    2.9264   -0.9669    0.1915 H   0  0  0  0  0  0  0  0  0  0  0  0
    2.6647    0.8469    1.6107 H   0  0  0  0  0  0  0  0  0  0  0  0
    2.7040    2.0890    0.3660 H   0  0  0  0  0  0  0  0  0  0  0  0
    5.0597    1.3015   -0.1305 H   0  0  0  0  0  0  0  0  0  0  0  0
    4.9587    0.2097    1.2540 H   0  0  0  0  0  0  0  0  0  0  0  0
    4.7099    3.2725    1.3832 H   0  0  0  0  0  0  0  0  0  0  0  0
    4.9513    1.2848    3.7226 H   0  0  0  0  0  0  0  0  0  0  0  0
    4.8381    4.3459    3.7609 H   0  0  0  0  0  0  0  0  0  0  0  0
    6.2697    3.3735    4.1657 H   0  0  0  0  0  0  0  0  0  0  0  0
    4.8564    3.3018    5.1885 H   0  0  0  0  0  0  0  0  0  0  0  0
    2.5259    1.4288    3.1703 H   0  0  0  0  0  0  0  0  0  0  0  0
    2.6269    3.1873    3.0654 H   0  0  0  0  0  0  0  0  0  0  0  0
    2.8621    1.3419    5.1938 H   0  0  0  0  0  0  0  0  0  0  0  0
    7.1519    1.2001    2.2768 H   0  0  0  0  0  0  0  0  0  0  0  0
  1  2  1  0  0  0  0
  1 11  1  0  0  0  0
  1 12  1  0  0  0  0
  1 13  1  0  0  0  0
  2  3  1  0  0  0  0
  2 14  1  0  0  0  0
  2 15  1  0  0  0  0
  3  4  1  0  0  0  0
  3 16  1  0  0  0  0
  3 17  1  0  0  0  0
  4  5  1  0  0  0  0
  4 18  1  0  0  0  0
  4 19  1  0  0  0  0
  5  6  1  0  0  0  0
  5 10  1  0  0  0  0
  5 20  1  0  0  0  0
  6  7  1  0  0  0  0
  6  8  1  0  0  0  0
  6 21  1  0  0  0  0
  7 22  1  0  0  0  0
  7 23  1  0  0  0  0
  7 24  1  0  0  0  0
  8  9  1  0  0  0  0
  8 25  1  0  0  0  0
  8 26  1  0  0  0  0
  9 27  1  0  0  0  0
 10 28  1  0  0  0  0
M  END
$$$$
