
 OpenBabel07202215583D

 26 26  0  0  0  0  0  0  0  0999 V2000
    1.0733    0.0537   -0.0283 C   0  0  0  0  0  0  0  0  0  0  0  0
    2.5945    0.0156   -0.0309 C   0  0  0  0  0  0  0  0  0  0  0  0
    3.0537   -1.3451    0.1353 O   0  0  0  0  0  0  0  0  0  0  0  0
    4.4069   -1.4739    0.1879 C   0  0  0  0  0  0  0  0  0  0  0  0
    5.2117   -0.5520    0.1228 O   0  0  0  0  0  0  0  0  0  0  0  0
    4.8368   -2.8839    0.4171 C   0  0  0  0  0  0  0  0  0  0  0  0
    4.2900   -3.9801   -0.2738 C   0  0  0  0  0  0  0  0  0  0  0  0
    4.7824   -5.2996   -0.0797 C   0  0  0  0  0  0  0  0  0  0  0  0
    5.8342   -5.4882    0.8282 C   0  0  0  0  0  0  0  0  0  0  0  0
    6.3703   -4.3966    1.5145 C   0  0  0  0  0  0  0  0  0  0  0  0
    5.8896   -3.1051    1.3084 C   0  0  0  0  0  0  0  0  0  0  0  0
    6.4679   -6.6470    1.1746 O   0  0  0  0  0  0  0  0  0  0  0  0
    4.1306   -6.2341   -0.8450 O   0  0  0  0  0  0  0  0  0  0  0  0
    4.4942   -7.6015   -0.7342 C   0  0  0  0  0  0  0  0  0  0  0  0
    0.7043    1.0744   -0.1809 H   0  0  0  0  0  0  0  0  0  0  0  0
    0.6741   -0.3171    0.9213 H   0  0  0  0  0  0  0  0  0  0  0  0
    0.6671   -0.5825   -0.8207 H   0  0  0  0  0  0  0  0  0  0  0  0
    2.9681    0.6483    0.7845 H   0  0  0  0  0  0  0  0  0  0  0  0
    2.9599    0.4087   -0.9868 H   0  0  0  0  0  0  0  0  0  0  0  0
    3.4898   -3.8068   -0.9915 H   0  0  0  0  0  0  0  0  0  0  0  0
    7.1851   -4.5699    2.2148 H   0  0  0  0  0  0  0  0  0  0  0  0
    6.3501   -2.2811    1.8480 H   0  0  0  0  0  0  0  0  0  0  0  0
    6.1687   -7.4105    0.6762 H   0  0  0  0  0  0  0  0  0  0  0  0
    3.8544   -8.2080   -1.3812 H   0  0  0  0  0  0  0  0  0  0  0  0
    4.3405   -7.9642    0.2888 H   0  0  0  0  0  0  0  0  0  0  0  0
    5.5220   -7.7553   -1.0828 H   0  0  0  0  0  0  0  0  0  0  0  0
  1  2  1  0  0  0  0
  1 15  1  0  0  0  0
  1 16  1  0  0  0  0
  1 17  1  0  0  0  0
  2  3  1  0  0  0  0
  2 18  1  0  0  0  0
  2 19  1  0  0  0  0
  3  4  1  0  0  0  0
  4  5  2  0  0  0  0
  4  6  1  0  0  0  0
  6  7  2  0  0  0  0
  6 11  1  0  0  0  0
  7  8  1  0  0  0  0
  7 20  1  0  0  0  0
  8  9  2  0  0  0  0
  8 13  1  0  0  0  0
  9 10  1  0  0  0  0
  9 12  1  0  0  0  0
 10 11  2  0  0  0  0
 10 21  1  0  0  0  0
 11 22  1  0  0  0  0
 12 23  1  0  0  0  0
 13 14  1  0  0  0  0
 14 24  1  0  0  0  0
 14 25  1  0  0  0  0
 14 26  1  0  0  0  0
M  END
$$$$
