
 OpenBabel07122215493D

 47 49  0  0  1  0  0  0  0  0999 V2000
    2.7526   -0.7893   -1.4620 C   0  0  0  0  0  0  0  0  0  0  0  0
    2.3053    0.0255   -0.2665 C   0  0  2  0  0  0  0  0  0  0  0  0
    2.8827    1.4181   -0.3298 C   0  0  0  0  0  0  0  0  0  0  0  0
    3.7436    1.6005    0.9138 C   0  0  0  0  0  0  0  0  0  0  0  0
    3.2471    0.5612    1.9284 C   0  0  2  0  0  0  0  0  0  0  0  0
    2.8326   -0.5148    1.0224 C   0  0  2  0  0  0  0  0  0  0  0  0
    4.2679   -1.5549    0.7330 C   0  0  0  0  0  0  0  0  0  0  0  0
    3.8838   -2.9495    0.3882 C   0  0  0  0  0  0  0  0  0  0  0  0
    3.0008   -3.3612    1.5459 C   0  0  1  0  0  0  0  0  0  0  0  0
    2.6012   -1.9568    2.5131 C   0  0  2  0  0  0  0  0  0  0  0  0
    1.7510   -0.8685    2.0506 C   0  0  0  0  0  0  0  0  0  0  0  0
    3.9813   -0.5552    2.7863 C   0  0  0  0  0  0  0  0  0  0  0  0
    4.7797    0.8860    3.3889 C   0  0  0  0  0  0  0  0  0  0  0  0
    4.0946   -1.0332    4.2337 C   0  0  0  0  0  0  0  0  0  0  0  0
    2.0608   -4.4877    0.8499 C   0  0  0  0  0  0  0  0  0  0  0  0
    3.5045   -4.0235    2.6941 O   0  0  0  0  0  0  0  0  0  0  0  0
    4.4769   -4.9055    2.6310 C   0  0  0  0  0  0  0  0  0  0  0  0
    4.9560   -5.4152    1.6052 O   0  0  0  0  0  0  0  0  0  0  0  0
    4.9608   -5.1135    4.0050 C   0  0  0  0  0  0  0  0  0  0  0  0
    2.4989   -0.3063   -2.3971 H   0  0  0  0  0  0  0  0  0  0  0  0
    2.2522   -1.7579   -1.4437 H   0  0  0  0  0  0  0  0  0  0  0  0
    3.8400   -0.9255   -1.4888 H   0  0  0  0  0  0  0  0  0  0  0  0
    1.2115    0.0365   -0.2446 H   0  0  0  0  0  0  0  0  0  0  0  0
    2.0534    2.1289   -0.3513 H   0  0  0  0  0  0  0  0  0  0  0  0
    3.4974    1.5599   -1.2209 H   0  0  0  0  0  0  0  0  0  0  0  0
    3.5846    2.6227    1.2900 H   0  0  0  0  0  0  0  0  0  0  0  0
    4.8021    1.5009    0.6632 H   0  0  0  0  0  0  0  0  0  0  0  0
    2.5025    1.0995    2.5540 H   0  0  0  0  0  0  0  0  0  0  0  0
    4.9111   -1.8041    1.6051 H   0  0  0  0  0  0  0  0  0  0  0  0
    5.0078   -1.0571    0.1070 H   0  0  0  0  0  0  0  0  0  0  0  0
    4.7449   -3.5996    0.2318 H   0  0  0  0  0  0  0  0  0  0  0  0
    3.3500   -2.9958   -0.5570 H   0  0  0  0  0  0  0  0  0  0  0  0
    1.6825   -2.3046    1.9854 H   0  0  0  0  0  0  0  0  0  0  0  0
    1.5966   -0.4871    3.0981 H   0  0  0  0  0  0  0  0  0  0  0  0
    0.6986   -0.8461    1.7210 H   0  0  0  0  0  0  0  0  0  0  0  0
    5.1779    1.5892    2.6298 H   0  0  0  0  0  0  0  0  0  0  0  0
    5.7416    0.6963    3.8901 H   0  0  0  0  0  0  0  0  0  0  0  0
    4.1559    1.5165    4.0458 H   0  0  0  0  0  0  0  0  0  0  0  0
    3.8934   -2.0960    4.2982 H   0  0  0  0  0  0  0  0  0  0  0  0
    3.4349   -0.4694    4.8923 H   0  0  0  0  0  0  0  0  0  0  0  0
    5.1383   -0.9920    4.5771 H   0  0  0  0  0  0  0  0  0  0  0  0
    1.5892   -4.2199   -0.1120 H   0  0  0  0  0  0  0  0  0  0  0  0
    1.3244   -4.9941    1.4824 H   0  0  0  0  0  0  0  0  0  0  0  0
    2.7210   -5.3286    0.5406 H   0  0  0  0  0  0  0  0  0  0  0  0
    4.3548   -4.5440    4.7257 H   0  0  0  0  0  0  0  0  0  0  0  0
    5.9795   -4.7316    4.0414 H   0  0  0  0  0  0  0  0  0  0  0  0
    4.8740   -6.1716    4.2320 H   0  0  0  0  0  0  0  0  0  0  0  0
  1 20  1  0  0  0  0
  1 21  1  0  0  0  0
  1 22  1  0  0  0  0
  2  3  1  0  0  0  0
  2  6  1  0  0  0  0
  2  1  1  0  0  0  0
  2 23  1  1  0  0  0
  3  4  1  0  0  0  0
  3 24  1  0  0  0  0
  3 25  1  0  0  0  0
  4  5  1  0  0  0  0
  4 26  1  0  0  0  0
  4 27  1  0  0  0  0
  5  6  1  0  0  0  0
  5 12  1  0  0  0  0
  5 28  1  6  0  0  0
  6  7  1  6  0  0  0
  6 11  1  0  0  0  0
  7  8  1  0  0  0  0
  7 29  1  0  0  0  0
  7 30  1  0  0  0  0
  8  9  1  0  0  0  0
  8 31  1  0  0  0  0
  8 32  1  0  0  0  0
  9 10  1  0  0  0  0
  9 15  1  0  0  0  0
  9 16  1  1  0  0  0
 10 11  1  0  0  0  0
 10 12  1  0  0  0  0
 10 33  1  1  0  0  0
 11 34  1  0  0  0  0
 11 35  1  0  0  0  0
 12 13  1  0  0  0  0
 12 14  1  0  0  0  0
 13 36  1  0  0  0  0
 13 37  1  0  0  0  0
 13 38  1  0  0  0  0
 14 39  1  0  0  0  0
 14 40  1  0  0  0  0
 14 41  1  0  0  0  0
 15 42  1  0  0  0  0
 15 43  1  0  0  0  0
 15 44  1  0  0  0  0
 16 17  1  0  0  0  0
 17 18  2  0  0  0  0
 17 19  1  0  0  0  0
 19 45  1  0  0  0  0
 19 46  1  0  0  0  0
 19 47  1  0  0  0  0
M  END
$$$$
