
 OpenBabel07222214433D

 16 15  0  0  0  0  0  0  0  0999 V2000
    1.0764   -0.0557    0.0440 C   0  0  0  0  0  0  0  0  0  0  0  0
    2.6125   -0.0777    0.0081 C   0  0  0  0  0  0  0  0  0  0  0  0
    3.0970   -1.1240   -1.0046 C   0  0  0  0  0  0  0  0  0  0  0  0
    2.6037   -2.4162   -0.6664 O   0  0  0  0  0  0  0  0  0  0  0  0
    3.1362    1.3312   -0.3121 C   0  0  0  0  0  0  0  0  0  0  0  0
    4.9529    1.4648   -0.3295 S   0  0  0  0  0  0  0  0  0  0  0  0
    0.6703   -1.0349    0.3193 H   0  0  0  0  0  0  0  0  0  0  0  0
    0.6642    0.2154   -0.9344 H   0  0  0  0  0  0  0  0  0  0  0  0
    0.7101    0.6693    0.7784 H   0  0  0  0  0  0  0  0  0  0  0  0
    2.9486   -0.3728    1.0114 H   0  0  0  0  0  0  0  0  0  0  0  0
    4.1879   -1.1919   -1.0362 H   0  0  0  0  0  0  0  0  0  0  0  0
    2.7447   -0.8806   -2.0121 H   0  0  0  0  0  0  0  0  0  0  0  0
    2.9522   -2.6412    0.2115 H   0  0  0  0  0  0  0  0  0  0  0  0
    2.7649    2.0461    0.4304 H   0  0  0  0  0  0  0  0  0  0  0  0
    2.7706    1.6575   -1.2916 H   0  0  0  0  0  0  0  0  0  0  0  0
    5.1702    0.9992    0.9090 H   0  0  0  0  0  0  0  0  0  0  0  0
  1  2  1  0  0  0  0
  1  7  1  0  0  0  0
  1  8  1  0  0  0  0
  1  9  1  0  0  0  0
  2  3  1  0  0  0  0
  2  5  1  0  0  0  0
  2 10  1  0  0  0  0
  3  4  1  0  0  0  0
  3 11  1  0  0  0  0
  3 12  1  0  0  0  0
  4 13  1  0  0  0  0
  5  6  1  0  0  0  0
  5 14  1  0  0  0  0
  5 15  1  0  0  0  0
  6 16  1  0  0  0  0
M  END
$$$$
