
 OpenBabel07122215493D

 30 30  0  0  0  0  0  0  0  0999 V2000
    1.0231   -0.0452   -0.0928 C   0  0  0  0  0  0  0  0  0  0  0  0
    2.5358   -0.0463   -0.0795 C   0  0  0  0  0  0  0  0  0  0  0  0
    3.0464    0.8116    1.0675 C   0  0  0  0  0  0  0  0  0  0  0  0
    4.5602    0.7789    1.0872 C   0  0  0  0  0  0  0  0  0  0  0  0
    5.0975    1.6311    2.2263 C   0  0  0  0  0  0  0  0  0  0  0  0
    6.6299    1.7390    2.1874 C   0  0  0  0  0  0  0  0  0  0  0  0
    7.1332    3.0526    2.7582 C   0  0  0  0  0  0  0  0  0  0  0  0
    6.6487    4.2263    1.9020 C   0  0  0  0  0  0  0  0  0  0  0  0
    6.2311    3.8256    0.4868 C   0  0  0  0  0  0  0  0  0  0  0  0
    7.0031    2.6380   -0.0327 C   0  0  0  0  0  0  0  0  0  0  0  0
    7.3751    2.5495   -1.1927 O   0  0  0  0  0  0  0  0  0  0  0  0
    7.1684    1.6174    0.8525 O   0  0  0  0  0  0  0  0  0  0  0  0
    0.6521   -0.6726   -0.9064 H   0  0  0  0  0  0  0  0  0  0  0  0
    0.6405    0.9708   -0.2324 H   0  0  0  0  0  0  0  0  0  0  0  0
    0.6332   -0.4328    0.8535 H   0  0  0  0  0  0  0  0  0  0  0  0
    2.9156    0.3358   -1.0354 H   0  0  0  0  0  0  0  0  0  0  0  0
    2.9081   -1.0713    0.0304 H   0  0  0  0  0  0  0  0  0  0  0  0
    2.6575    0.4504    2.0253 H   0  0  0  0  0  0  0  0  0  0  0  0
    2.6992    1.8458    0.9398 H   0  0  0  0  0  0  0  0  0  0  0  0
    4.9023    1.1529    0.1159 H   0  0  0  0  0  0  0  0  0  0  0  0
    4.9351   -0.2448    1.1863 H   0  0  0  0  0  0  0  0  0  0  0  0
    4.7791    1.2379    3.1989 H   0  0  0  0  0  0  0  0  0  0  0  0
    4.6235    2.6182    2.1837 H   0  0  0  0  0  0  0  0  0  0  0  0
    7.0443    0.9015    2.7618 H   0  0  0  0  0  0  0  0  0  0  0  0
    8.2308    3.0430    2.7388 H   0  0  0  0  0  0  0  0  0  0  0  0
    6.8266    3.1751    3.8022 H   0  0  0  0  0  0  0  0  0  0  0  0
    7.4380    4.9829    1.8520 H   0  0  0  0  0  0  0  0  0  0  0  0
    5.7956    4.7045    2.3993 H   0  0  0  0  0  0  0  0  0  0  0  0
    6.3620    4.6707   -0.1944 H   0  0  0  0  0  0  0  0  0  0  0  0
    5.1635    3.5807    0.4330 H   0  0  0  0  0  0  0  0  0  0  0  0
  1  2  1  0  0  0  0
  1 13  1  0  0  0  0
  1 14  1  0  0  0  0
  1 15  1  0  0  0  0
  2  3  1  0  0  0  0
  2 16  1  0  0  0  0
  2 17  1  0  0  0  0
  3  4  1  0  0  0  0
  3 18  1  0  0  0  0
  3 19  1  0  0  0  0
  4  5  1  0  0  0  0
  4 20  1  0  0  0  0
  4 21  1  0  0  0  0
  5  6  1  0  0  0  0
  5 22  1  0  0  0  0
  5 23  1  0  0  0  0
  6  7  1  0  0  0  0
  6 12  1  0  0  0  0
  6 24  1  0  0  0  0
  7  8  1  0  0  0  0
  7 25  1  0  0  0  0
  7 26  1  0  0  0  0
  8  9  1  0  0  0  0
  8 27  1  0  0  0  0
  8 28  1  0  0  0  0
  9 10  1  0  0  0  0
  9 29  1  0  0  0  0
  9 30  1  0  0  0  0
 10 11  2  0  0  0  0
 10 12  1  0  0  0  0
M  END
$$$$
