
 OpenBabel07202215583D

 24 24  0  0  0  0  0  0  0  0999 V2000
    1.0668   -0.0576    0.0747 C   0  0  0  0  0  0  0  0  0  0  0  0
    2.4900   -0.0346    0.0896 O   0  0  0  0  0  0  0  0  0  0  0  0
    3.0786    1.2059    0.0859 C   0  0  0  0  0  0  0  0  0  0  0  0
    4.4884    1.1744    0.0684 C   0  0  0  0  0  0  0  0  0  0  0  0
    5.2494    2.3599    0.0465 C   0  0  0  0  0  0  0  0  0  0  0  0
    6.7716    2.2866    0.0255 C   0  0  0  0  0  0  0  0  0  0  0  0
    7.4988    3.6101   -0.0008 C   0  0  0  0  0  0  0  0  0  0  0  0
    8.8302    3.7692   -0.0224 C   0  0  0  0  0  0  0  0  0  0  0  0
    4.5485    3.5729    0.0445 C   0  0  0  0  0  0  0  0  0  0  0  0
    3.1610    3.6214    0.0739 C   0  0  0  0  0  0  0  0  0  0  0  0
    2.4265    2.4461    0.0970 C   0  0  0  0  0  0  0  0  0  0  0  0
    1.0648    2.5614    0.1315 O   0  0  0  0  0  0  0  0  0  0  0  0
    0.7358   -1.0986    0.0623 H   0  0  0  0  0  0  0  0  0  0  0  0
    0.6747    0.4144   -0.8338 H   0  0  0  0  0  0  0  0  0  0  0  0
    0.6598    0.3956    0.9855 H   0  0  0  0  0  0  0  0  0  0  0  0
    4.9886    0.2055    0.0706 H   0  0  0  0  0  0  0  0  0  0  0  0
    7.0706    1.7087   -0.8593 H   0  0  0  0  0  0  0  0  0  0  0  0
    7.0958    1.7306    0.9155 H   0  0  0  0  0  0  0  0  0  0  0  0
    6.9426    4.5364   -0.0033 H   0  0  0  0  0  0  0  0  0  0  0  0
    9.5111    2.9303   -0.0224 H   0  0  0  0  0  0  0  0  0  0  0  0
    9.2405    4.7749   -0.0405 H   0  0  0  0  0  0  0  0  0  0  0  0
    5.0450    4.5333    0.0214 H   0  0  0  0  0  0  0  0  0  0  0  0
    2.6814    4.5943    0.0764 H   0  0  0  0  0  0  0  0  0  0  0  0
    0.8197    3.4997    0.1560 H   0  0  0  0  0  0  0  0  0  0  0  0
  1  2  1  0  0  0  0
  1 13  1  0  0  0  0
  1 14  1  0  0  0  0
  1 15  1  0  0  0  0
  2  3  1  0  0  0  0
  3  4  1  0  0  0  0
  3 11  2  0  0  0  0
  4  5  2  0  0  0  0
  4 16  1  0  0  0  0
  5  6  1  0  0  0  0
  5  9  1  0  0  0  0
  6  7  1  0  0  0  0
  6 17  1  0  0  0  0
  6 18  1  0  0  0  0
  7  8  2  0  0  0  0
  7 19  1  0  0  0  0
  8 20  1  0  0  0  0
  8 21  1  0  0  0  0
  9 10  2  0  0  0  0
  9 22  1  0  0  0  0
 10 11  1  0  0  0  0
 10 23  1  0  0  0  0
 11 12  1  0  0  0  0
 12 24  1  0  0  0  0
M  END
$$$$
