
 OpenBabel07202215583D

 32 32  0  0  0  0  0  0  0  0999 V2000
    1.0070   -0.0871   -0.1143 C   0  0  0  0  0  0  0  0  0  0  0  0
    2.5260    0.0300   -0.0377 C   0  0  0  0  0  0  0  0  0  0  0  0
    3.0052    1.3045    0.7242 C   0  0  0  0  0  0  0  0  0  0  0  0
    2.5701    2.5637   -0.0602 C   0  0  0  0  0  0  0  0  0  0  0  0
    2.2322    1.3274    2.0673 C   0  0  0  0  0  0  0  0  0  0  0  0
    4.5934    1.2893    0.8008 C   0  0  0  0  0  0  0  0  0  0  0  0
    5.2089    0.0737    1.5175 C   0  0  0  0  0  0  0  0  0  0  0  0
    4.9055    0.0469    3.0025 C   0  0  0  0  0  0  0  0  0  0  0  0
    5.0695    1.4056    3.6750 C   0  0  0  0  0  0  0  0  0  0  0  0
    5.2470    1.4555    4.9027 O   0  0  0  0  0  0  0  0  0  0  0  0
    4.9070    2.7040    2.8899 C   0  0  0  0  0  0  0  0  0  0  0  0
    5.2297    2.5511    1.4181 C   0  0  0  0  0  0  0  0  0  0  0  0
    0.7110   -0.9904   -0.6466 H   0  0  0  0  0  0  0  0  0  0  0  0
    0.5700    0.7767   -0.6194 H   0  0  0  0  0  0  0  0  0  0  0  0
    0.5646   -0.1627    0.8837 H   0  0  0  0  0  0  0  0  0  0  0  0
    2.9494    0.0091   -1.0496 H   0  0  0  0  0  0  0  0  0  0  0  0
    2.8861   -0.8720    0.4704 H   0  0  0  0  0  0  0  0  0  0  0  0
    1.4816    2.6441   -0.1186 H   0  0  0  0  0  0  0  0  0  0  0  0
    2.9663    2.5552   -1.0811 H   0  0  0  0  0  0  0  0  0  0  0  0
    2.9003    3.4835    0.4304 H   0  0  0  0  0  0  0  0  0  0  0  0
    1.1587    1.4606    1.9206 H   0  0  0  0  0  0  0  0  0  0  0  0
    2.4641    2.1472    2.7288 H   0  0  0  0  0  0  0  0  0  0  0  0
    2.3261    0.3940    2.6162 H   0  0  0  0  0  0  0  0  0  0  0  0
    4.9642    1.2458   -0.2375 H   0  0  0  0  0  0  0  0  0  0  0  0
    6.3013    0.0986    1.3986 H   0  0  0  0  0  0  0  0  0  0  0  0
    4.9013   -0.8650    1.0440 H   0  0  0  0  0  0  0  0  0  0  0  0
    5.5700   -0.6709    3.4940 H   0  0  0  0  0  0  0  0  0  0  0  0
    3.9125   -0.3619    3.1883 H   0  0  0  0  0  0  0  0  0  0  0  0
    5.5502    3.4667    3.3369 H   0  0  0  0  0  0  0  0  0  0  0  0
    3.9132    3.1321    3.0111 H   0  0  0  0  0  0  0  0  0  0  0  0
    6.3219    2.5053    1.3121 H   0  0  0  0  0  0  0  0  0  0  0  0
    4.9370    3.4516    0.8671 H   0  0  0  0  0  0  0  0  0  0  0  0
  1  2  1  0  0  0  0
  1 13  1  0  0  0  0
  1 14  1  0  0  0  0
  1 15  1  0  0  0  0
  2  3  1  0  0  0  0
  2 16  1  0  0  0  0
  2 17  1  0  0  0  0
  3  4  1  0  0  0  0
  3  5  1  0  0  0  0
  3  6  1  0  0  0  0
  4 18  1  0  0  0  0
  4 19  1  0  0  0  0
  4 20  1  0  0  0  0
  5 21  1  0  0  0  0
  5 22  1  0  0  0  0
  5 23  1  0  0  0  0
  6  7  1  0  0  0  0
  6 12  1  0  0  0  0
  6 24  1  0  0  0  0
  7  8  1  0  0  0  0
  7 25  1  0  0  0  0
  7 26  1  0  0  0  0
  8  9  1  0  0  0  0
  8 27  1  0  0  0  0
  8 28  1  0  0  0  0
  9 10  2  0  0  0  0
  9 11  1  0  0  0  0
 11 12  1  0  0  0  0
 11 29  1  0  0  0  0
 11 30  1  0  0  0  0
 12 31  1  0  0  0  0
 12 32  1  0  0  0  0
M  END
$$$$
