
 OpenBabel07202215583D

 20 19  0  0  0  0  0  0  0  0999 V2000
    0.9215    0.0280   -0.0013 C   0  0  0  0  0  0  0  0  0  0  0  0
    2.4418    0.0074   -0.0313 C   0  0  0  0  0  0  0  0  0  0  0  0
    2.9552    1.3346    0.4868 C   0  0  0  0  0  0  0  0  0  0  0  0
    4.4727    1.4170    0.5537 C   0  0  0  0  0  0  0  0  0  0  0  0
    4.9341    2.7750    1.0836 C   0  0  0  0  0  0  0  0  0  0  0  0
    4.5521    3.0655    2.5366 C   0  0  0  0  0  0  0  0  0  0  0  0
    5.3343    3.1587    3.4770 O   0  0  0  0  0  0  0  0  0  0  0  0
    3.2289    3.2637    2.7600 O   0  0  0  0  0  0  0  0  0  0  0  0
    6.9053    2.7996    0.9532 Br  0  0  0  0  0  0  0  0  0  0  0  0
    0.5209   -0.9276   -0.3437 H   0  0  0  0  0  0  0  0  0  0  0  0
    0.5321    0.8253   -0.6433 H   0  0  0  0  0  0  0  0  0  0  0  0
    0.5534    0.2108    1.0156 H   0  0  0  0  0  0  0  0  0  0  0  0
    2.8059   -0.1792   -1.0455 H   0  0  0  0  0  0  0  0  0  0  0  0
    2.8081   -0.7965    0.6173 H   0  0  0  0  0  0  0  0  0  0  0  0
    2.5449    1.4186    1.4937 H   0  0  0  0  0  0  0  0  0  0  0  0
    2.5661    2.1639   -0.1181 H   0  0  0  0  0  0  0  0  0  0  0  0
    4.8810    1.2451   -0.4525 H   0  0  0  0  0  0  0  0  0  0  0  0
    4.8545    0.6079    1.1887 H   0  0  0  0  0  0  0  0  0  0  0  0
    4.6160    3.6012    0.4396 H   0  0  0  0  0  0  0  0  0  0  0  0
    2.6230    3.2366    1.9974 H   0  0  0  0  0  0  0  0  0  0  0  0
  1  2  1  0  0  0  0
  1 10  1  0  0  0  0
  1 11  1  0  0  0  0
  1 12  1  0  0  0  0
  2  3  1  0  0  0  0
  2 13  1  0  0  0  0
  2 14  1  0  0  0  0
  3  4  1  0  0  0  0
  3 15  1  0  0  0  0
  3 16  1  0  0  0  0
  4  5  1  0  0  0  0
  4 17  1  0  0  0  0
  4 18  1  0  0  0  0
  5  6  1  0  0  0  0
  5  9  1  0  0  0  0
  5 19  1  0  0  0  0
  6  7  2  0  0  0  0
  6  8  1  0  0  0  0
  8 20  1  0  0  0  0
M  END
$$$$
