
 OpenBabel07222214433D

 19 19  0  0  0  0  0  0  0  0999 V2000
    1.0959   -0.0501    0.0600 C   0  0  0  0  0  0  0  0  0  0  0  0
    2.5197   -0.0338    0.0736 O   0  0  0  0  0  0  0  0  0  0  0  0
    3.1285    1.1962    0.0703 C   0  0  0  0  0  0  0  0  0  0  0  0
    4.5324    1.1308    0.0541 C   0  0  0  0  0  0  0  0  0  0  0  0
    5.2920    2.3047    0.0325 C   0  0  0  0  0  0  0  0  0  0  0  0
    6.7684    2.2376    0.0119 C   0  0  0  0  0  0  0  0  0  0  0  0
    7.4612    3.2516   -0.0102 O   0  0  0  0  0  0  0  0  0  0  0  0
    4.6586    3.5490    0.0295 C   0  0  0  0  0  0  0  0  0  0  0  0
    3.2661    3.6233    0.0579 C   0  0  0  0  0  0  0  0  0  0  0  0
    2.5040    2.4538    0.0807 C   0  0  0  0  0  0  0  0  0  0  0  0
    1.1417    2.5708    0.1152 O   0  0  0  0  0  0  0  0  0  0  0  0
    0.7617   -1.0908    0.0488 H   0  0  0  0  0  0  0  0  0  0  0  0
    0.7041    0.4216   -0.8484 H   0  0  0  0  0  0  0  0  0  0  0  0
    0.6907    0.4043    0.9707 H   0  0  0  0  0  0  0  0  0  0  0  0
    5.0177    0.1571    0.0574 H   0  0  0  0  0  0  0  0  0  0  0  0
    7.2277    1.2362    0.0176 H   0  0  0  0  0  0  0  0  0  0  0  0
    5.2485    4.4630    0.0069 H   0  0  0  0  0  0  0  0  0  0  0  0
    2.7924    4.6002    0.0607 H   0  0  0  0  0  0  0  0  0  0  0  0
    0.8783    3.5037    0.1404 H   0  0  0  0  0  0  0  0  0  0  0  0
  1  2  1  0  0  0  0
  1 12  1  0  0  0  0
  1 13  1  0  0  0  0
  1 14  1  0  0  0  0
  2  3  1  0  0  0  0
  3  4  1  0  0  0  0
  3 10  2  0  0  0  0
  4  5  2  0  0  0  0
  4 15  1  0  0  0  0
  5  6  1  0  0  0  0
  5  8  1  0  0  0  0
  6  7  2  0  0  0  0
  6 16  1  0  0  0  0
  8  9  2  0  0  0  0
  8 17  1  0  0  0  0
  9 10  1  0  0  0  0
  9 18  1  0  0  0  0
 10 11  1  0  0  0  0
 11 19  1  0  0  0  0
M  END
$$$$
