
 OpenBabel07222214443D

 26 26  0  0  0  0  0  0  0  0999 V2000
    0.9851    0.0286   -0.0684 C   0  0  0  0  0  0  0  0  0  0  0  0
    2.5007    0.0303   -0.0637 C   0  0  0  0  0  0  0  0  0  0  0  0
    3.0896   -1.0284   -1.0098 C   0  0  0  0  0  0  0  0  0  0  0  0
    4.6030   -1.0172   -1.0214 C   0  0  0  0  0  0  0  0  0  0  0  0
    5.3573   -2.2050   -1.0318 C   0  0  0  0  0  0  0  0  0  0  0  0
    6.7733   -2.1890   -1.0451 C   0  0  0  0  0  0  0  0  0  0  0  0
    7.4172   -0.9460   -1.0542 C   0  0  0  0  0  0  0  0  0  0  0  0
    6.6730    0.2294   -1.0575 C   0  0  0  0  0  0  0  0  0  0  0  0
    5.2873    0.1980   -1.0601 C   0  0  0  0  0  0  0  0  0  0  0  0
    8.7572   -0.6780   -1.0608 O   0  0  0  0  0  0  0  0  0  0  0  0
    7.3103   -3.4498   -1.0380 O   0  0  0  0  0  0  0  0  0  0  0  0
    8.7176   -3.6006   -1.0324 C   0  0  0  0  0  0  0  0  0  0  0  0
    0.6119    0.8042    0.6085 H   0  0  0  0  0  0  0  0  0  0  0  0
    0.5922   -0.9364    0.2610 H   0  0  0  0  0  0  0  0  0  0  0  0
    0.6022    0.2431   -1.0710 H   0  0  0  0  0  0  0  0  0  0  0  0
    2.8698   -0.1363    0.9556 H   0  0  0  0  0  0  0  0  0  0  0  0
    2.8189    1.0377   -0.3532 H   0  0  0  0  0  0  0  0  0  0  0  0
    2.7356   -0.8533   -2.0337 H   0  0  0  0  0  0  0  0  0  0  0  0
    2.7228   -2.0173   -0.7077 H   0  0  0  0  0  0  0  0  0  0  0  0
    4.8424   -3.1662   -1.0223 H   0  0  0  0  0  0  0  0  0  0  0  0
    7.1835    1.1884   -1.0602 H   0  0  0  0  0  0  0  0  0  0  0  0
    4.7626    1.1468   -1.0843 H   0  0  0  0  0  0  0  0  0  0  0  0
    9.2863   -1.4666   -1.1662 H   0  0  0  0  0  0  0  0  0  0  0  0
    8.9674   -4.6643   -0.9987 H   0  0  0  0  0  0  0  0  0  0  0  0
    9.1547   -3.1415   -0.1389 H   0  0  0  0  0  0  0  0  0  0  0  0
    9.1477   -3.2057   -1.9594 H   0  0  0  0  0  0  0  0  0  0  0  0
  1  2  1  0  0  0  0
  1 13  1  0  0  0  0
  1 14  1  0  0  0  0
  1 15  1  0  0  0  0
  2  3  1  0  0  0  0
  2 16  1  0  0  0  0
  2 17  1  0  0  0  0
  3  4  1  0  0  0  0
  3 18  1  0  0  0  0
  3 19  1  0  0  0  0
  4  5  2  0  0  0  0
  4  9  1  0  0  0  0
  5  6  1  0  0  0  0
  5 20  1  0  0  0  0
  6  7  2  0  0  0  0
  6 11  1  0  0  0  0
  7  8  1  0  0  0  0
  7 10  1  0  0  0  0
  8  9  2  0  0  0  0
  8 21  1  0  0  0  0
  9 22  1  0  0  0  0
 10 23  1  0  0  0  0
 11 12  1  0  0  0  0
 12 24  1  0  0  0  0
 12 25  1  0  0  0  0
 12 26  1  0  0  0  0
M  END
$$$$
