
 OpenBabel07202215583D

 27 26  0  0  0  0  0  0  0  0999 V2000
    0.9794    0.0679   -0.0720 C   0  0  0  0  0  0  0  0  0  0  0  0
    2.4926    0.0846   -0.0522 C   0  0  0  0  0  0  0  0  0  0  0  0
    2.9750    1.0188    1.0509 C   0  0  0  0  0  0  0  0  0  0  0  0
    4.4796    1.0454    1.0822 C   0  0  0  0  0  0  0  0  0  0  0  0
    5.0203    1.9723    2.1768 C   0  0  0  0  0  0  0  0  0  0  0  0
    6.5185    1.8956    2.0862 C   0  0  0  0  0  0  0  0  0  0  0  0
    7.0038    1.1634    1.2216 O   0  0  0  0  0  0  0  0  0  0  0  0
    7.3578    2.6986    3.0344 C   0  0  0  0  0  0  0  0  0  0  0  0
    8.8653    2.5930    2.9096 C   0  0  0  0  0  0  0  0  0  0  0  0
    9.5647    1.7256    1.8854 C   0  0  0  0  0  0  0  0  0  0  0  0
    9.5663    3.2534    3.6894 O   0  0  0  0  0  0  0  0  0  0  0  0
    0.6141   -0.5974   -0.8574 H   0  0  0  0  0  0  0  0  0  0  0  0
    0.5898    1.0740   -0.2566 H   0  0  0  0  0  0  0  0  0  0  0  0
    0.5898   -0.2799    0.8900 H   0  0  0  0  0  0  0  0  0  0  0  0
    2.8745    0.4155   -1.0261 H   0  0  0  0  0  0  0  0  0  0  0  0
    2.8745   -0.9305    0.1138 H   0  0  0  0  0  0  0  0  0  0  0  0
    2.6005    0.6805    2.0228 H   0  0  0  0  0  0  0  0  0  0  0  0
    2.6005    2.0332    0.8772 H   0  0  0  0  0  0  0  0  0  0  0  0
    4.8588    1.3676    0.1009 H   0  0  0  0  0  0  0  0  0  0  0  0
    4.8588    0.0243    1.2385 H   0  0  0  0  0  0  0  0  0  0  0  0
    4.6948    1.6350    3.1656 H   0  0  0  0  0  0  0  0  0  0  0  0
    4.6948    3.0032    2.0069 H   0  0  0  0  0  0  0  0  0  0  0  0
    7.0944    2.4010    4.0577 H   0  0  0  0  0  0  0  0  0  0  0  0
    7.0944    3.7570    2.9093 H   0  0  0  0  0  0  0  0  0  0  0  0
    8.9534    1.1515    1.2076 H   0  0  0  0  0  0  0  0  0  0  0  0
   10.1730    0.9850    2.4075 H   0  0  0  0  0  0  0  0  0  0  0  0
   10.1730    2.3625    1.2409 H   0  0  0  0  0  0  0  0  0  0  0  0
  1  2  1  0  0  0  0
  1 12  1  0  0  0  0
  1 13  1  0  0  0  0
  1 14  1  0  0  0  0
  2  3  1  0  0  0  0
  2 15  1  0  0  0  0
  2 16  1  0  0  0  0
  3  4  1  0  0  0  0
  3 17  1  0  0  0  0
  3 18  1  0  0  0  0
  4  5  1  0  0  0  0
  4 19  1  0  0  0  0
  4 20  1  0  0  0  0
  5  6  1  0  0  0  0
  5 21  1  0  0  0  0
  5 22  1  0  0  0  0
  6  7  2  0  0  0  0
  6  8  1  0  0  0  0
  8  9  1  0  0  0  0
  8 23  1  0  0  0  0
  8 24  1  0  0  0  0
  9 10  1  0  0  0  0
  9 11  2  0  0  0  0
 10 25  1  0  0  0  0
 10 26  1  0  0  0  0
 10 27  1  0  0  0  0
M  END
$$$$
