
 OpenBabel07202215583D

 25 25  0  0  0  0  0  0  0  0999 V2000
    1.0735    0.0623    0.0053 C   0  0  0  0  0  0  0  0  0  0  0  0
    2.6184    0.0130    0.0137 C   0  0  0  0  0  0  0  0  0  0  0  0
    3.1368    0.0904   -1.4356 C   0  0  0  0  0  0  0  0  0  0  0  0
    3.1107    1.2687    0.7664 C   0  0  0  0  0  0  0  0  0  0  0  0
    3.0877   -1.2987    0.6620 C   0  0  0  0  0  0  0  0  0  0  0  0
    2.5719   -2.5305    0.2143 C   0  0  0  0  0  0  0  0  0  0  0  0
    2.9215   -3.7357    0.8277 C   0  0  0  0  0  0  0  0  0  0  0  0
    3.8191   -3.7230    1.8867 C   0  0  0  0  0  0  0  0  0  0  0  0
    4.3697   -2.5331    2.3314 C   0  0  0  0  0  0  0  0  0  0  0  0
    4.0115   -1.3289    1.7217 C   0  0  0  0  0  0  0  0  0  0  0  0
    4.1892   -4.8710    2.5207 O   0  0  0  0  0  0  0  0  0  0  0  0
    0.7071    0.9966   -0.4337 H   0  0  0  0  0  0  0  0  0  0  0  0
    0.6739   -0.0130    1.0237 H   0  0  0  0  0  0  0  0  0  0  0  0
    0.6322   -0.7526   -0.5788 H   0  0  0  0  0  0  0  0  0  0  0  0
    2.7966    1.0098   -1.9268 H   0  0  0  0  0  0  0  0  0  0  0  0
    2.7855   -0.7512   -2.0432 H   0  0  0  0  0  0  0  0  0  0  0  0
    4.2327    0.0820   -1.4663 H   0  0  0  0  0  0  0  0  0  0  0  0
    2.7331    2.1871    0.3039 H   0  0  0  0  0  0  0  0  0  0  0  0
    4.2050    1.3369    0.7662 H   0  0  0  0  0  0  0  0  0  0  0  0
    2.7721    1.2636    1.8098 H   0  0  0  0  0  0  0  0  0  0  0  0
    1.8727   -2.5665   -0.6188 H   0  0  0  0  0  0  0  0  0  0  0  0
    2.4774   -4.6575    0.4697 H   0  0  0  0  0  0  0  0  0  0  0  0
    5.0729   -2.5337    3.1599 H   0  0  0  0  0  0  0  0  0  0  0  0
    4.4670   -0.4228    2.1090 H   0  0  0  0  0  0  0  0  0  0  0  0
    3.7431   -5.6163    2.0892 H   0  0  0  0  0  0  0  0  0  0  0  0
  1  2  1  0  0  0  0
  1 12  1  0  0  0  0
  1 13  1  0  0  0  0
  1 14  1  0  0  0  0
  2  3  1  0  0  0  0
  2  4  1  0  0  0  0
  2  5  1  0  0  0  0
  3 15  1  0  0  0  0
  3 16  1  0  0  0  0
  3 17  1  0  0  0  0
  4 18  1  0  0  0  0
  4 19  1  0  0  0  0
  4 20  1  0  0  0  0
  5  6  2  0  0  0  0
  5 10  1  0  0  0  0
  6  7  1  0  0  0  0
  6 21  1  0  0  0  0
  7  8  2  0  0  0  0
  7 22  1  0  0  0  0
  8  9  1  0  0  0  0
  8 11  1  0  0  0  0
  9 10  2  0  0  0  0
  9 23  1  0  0  0  0
 10 24  1  0  0  0  0
 11 25  1  0  0  0  0
M  END
$$$$
