
 OpenBabel07202215583D

 22 23  0  0  0  0  0  0  0  0999 V2000
    0.8181   -0.1054    0.0389 C   0  0  0  0  0  0  0  0  0  0  0  0
    2.1585   -0.0915    0.0047 C   0  0  0  0  0  0  0  0  0  0  0  0
    3.0517   -1.2901    0.2152 C   0  0  0  0  0  0  0  0  0  0  0  0
    4.5517   -1.0186    0.1806 C   0  0  0  0  0  0  0  0  0  0  0  0
    5.0818    0.2952    0.1910 C   0  0  0  0  0  0  0  0  0  0  0  0
    6.4502    0.5474    0.1602 C   0  0  0  0  0  0  0  0  0  0  0  0
    7.2897   -0.5335    0.1516 C   0  0  0  0  0  0  0  0  0  0  0  0
    8.6449   -0.4657    0.1481 O   0  0  0  0  0  0  0  0  0  0  0  0
    8.9746   -1.8633    0.2379 C   0  0  0  0  0  0  0  0  0  0  0  0
    7.8239   -2.7344    0.1544 O   0  0  0  0  0  0  0  0  0  0  0  0
    6.8122   -1.8229    0.1579 C   0  0  0  0  0  0  0  0  0  0  0  0
    5.4556   -2.1015    0.1702 C   0  0  0  0  0  0  0  0  0  0  0  0
    0.2755    0.8228   -0.1163 H   0  0  0  0  0  0  0  0  0  0  0  0
    0.2552   -1.0121    0.2104 H   0  0  0  0  0  0  0  0  0  0  0  0
    2.5925    0.8781   -0.1994 H   0  0  0  0  0  0  0  0  0  0  0  0
    2.8209   -2.0272   -0.5656 H   0  0  0  0  0  0  0  0  0  0  0  0
    2.8162   -1.7439    1.1871 H   0  0  0  0  0  0  0  0  0  0  0  0
    4.4459    1.1711    0.2272 H   0  0  0  0  0  0  0  0  0  0  0  0
    6.8257    1.5628    0.1547 H   0  0  0  0  0  0  0  0  0  0  0  0
    9.4746   -2.0357    1.1982 H   0  0  0  0  0  0  0  0  0  0  0  0
    9.6703   -2.1065   -0.5723 H   0  0  0  0  0  0  0  0  0  0  0  0
    5.1133   -3.1324    0.1794 H   0  0  0  0  0  0  0  0  0  0  0  0
  1  2  2  0  0  0  0
  1 13  1  0  0  0  0
  1 14  1  0  0  0  0
  2  3  1  0  0  0  0
  2 15  1  0  0  0  0
  3  4  1  0  0  0  0
  3 16  1  0  0  0  0
  3 17  1  0  0  0  0
  4  5  1  0  0  0  0
  4 12  2  0  0  0  0
  5  6  2  0  0  0  0
  5 18  1  0  0  0  0
  6  7  1  0  0  0  0
  6 19  1  0  0  0  0
  7  8  1  0  0  0  0
  7 11  2  0  0  0  0
  8  9  1  0  0  0  0
  9 10  1  0  0  0  0
  9 20  1  0  0  0  0
  9 21  1  0  0  0  0
 10 11  1  0  0  0  0
 11 12  1  0  0  0  0
 12 22  1  0  0  0  0
M  END
$$$$
