
 OpenBabel07222214433D

 27 26  0  0  0  0  0  0  0  0999 V2000
    1.0255   -0.0720    0.0725 C   0  0  0  0  0  0  0  0  0  0  0  0
    2.5446   -0.0597    0.0692 C   0  0  0  0  0  0  0  0  0  0  0  0
    3.0775    1.3136   -0.3298 C   0  0  0  0  0  0  0  0  0  0  0  0
    4.6038    1.3319   -0.3349 C   0  0  0  0  0  0  0  0  0  0  0  0
    5.1255    2.7096   -0.7364 C   0  0  0  0  0  0  0  0  0  0  0  0
    6.6518    2.7350   -0.7449 C   0  0  0  0  0  0  0  0  0  0  0  0
    7.1739    4.1155   -1.1450 C   0  0  0  0  0  0  0  0  0  0  0  0
    8.6985    4.1307   -1.1507 C   0  0  0  0  0  0  0  0  0  0  0  0
    9.3218    5.7815   -1.5748 S   0  0  0  0  0  0  0  0  0  0  0  0
    0.6546   -1.0606    0.3594 H   0  0  0  0  0  0  0  0  0  0  0  0
    0.6315    0.1665   -0.9203 H   0  0  0  0  0  0  0  0  0  0  0  0
    0.6314    0.6609    0.7836 H   0  0  0  0  0  0  0  0  0  0  0  0
    2.9125   -0.8201   -0.6295 H   0  0  0  0  0  0  0  0  0  0  0  0
    2.9125   -0.3281    1.0659 H   0  0  0  0  0  0  0  0  0  0  0  0
    2.7035    2.0717    0.3694 H   0  0  0  0  0  0  0  0  0  0  0  0
    2.7032    1.5798   -1.3253 H   0  0  0  0  0  0  0  0  0  0  0  0
    4.9803    0.5759   -1.0349 H   0  0  0  0  0  0  0  0  0  0  0  0
    4.9807    1.0688    0.6603 H   0  0  0  0  0  0  0  0  0  0  0  0
    4.7480    3.4644   -0.0355 H   0  0  0  0  0  0  0  0  0  0  0  0
    4.7460    2.9724   -1.7306 H   0  0  0  0  0  0  0  0  0  0  0  0
    7.0285    1.9795   -1.4455 H   0  0  0  0  0  0  0  0  0  0  0  0
    7.0294    2.4713    0.2499 H   0  0  0  0  0  0  0  0  0  0  0  0
    6.7888    4.8629   -0.4396 H   0  0  0  0  0  0  0  0  0  0  0  0
    6.7881    4.3733   -2.1391 H   0  0  0  0  0  0  0  0  0  0  0  0
    9.0863    3.4123   -1.8803 H   0  0  0  0  0  0  0  0  0  0  0  0
    9.0885    3.8572   -0.1655 H   0  0  0  0  0  0  0  0  0  0  0  0
    8.7602    5.8532   -2.7904 H   0  0  0  0  0  0  0  0  0  0  0  0
  1  2  1  0  0  0  0
  1 10  1  0  0  0  0
  1 11  1  0  0  0  0
  1 12  1  0  0  0  0
  2  3  1  0  0  0  0
  2 13  1  0  0  0  0
  2 14  1  0  0  0  0
  3  4  1  0  0  0  0
  3 15  1  0  0  0  0
  3 16  1  0  0  0  0
  4  5  1  0  0  0  0
  4 17  1  0  0  0  0
  4 18  1  0  0  0  0
  5  6  1  0  0  0  0
  5 19  1  0  0  0  0
  5 20  1  0  0  0  0
  6  7  1  0  0  0  0
  6 21  1  0  0  0  0
  6 22  1  0  0  0  0
  7  8  1  0  0  0  0
  7 23  1  0  0  0  0
  7 24  1  0  0  0  0
  8  9  1  0  0  0  0
  8 25  1  0  0  0  0
  8 26  1  0  0  0  0
  9 27  1  0  0  0  0
M  END
$$$$
