
 OpenBabel07202215583D

 24 24  0  0  0  0  0  0  0  0999 V2000
    0.9297   -0.0098   -0.0417 C   0  0  0  0  0  0  0  0  0  0  0  0
    2.4327    0.0399   -0.0870 C   0  0  0  0  0  0  0  0  0  0  0  0
    3.0184    0.7440   -0.9111 O   0  0  0  0  0  0  0  0  0  0  0  0
    3.1680   -0.8230    0.9116 C   0  0  0  0  0  0  0  0  0  0  0  0
    4.6839   -0.7006    0.7497 C   0  0  0  0  0  0  0  0  0  0  0  0
    5.4046   -1.5795    1.7406 C   0  0  0  0  0  0  0  0  0  0  0  0
    5.1815   -2.9652    1.7406 C   0  0  0  0  0  0  0  0  0  0  0  0
    5.7717   -3.7828    2.7031 C   0  0  0  0  0  0  0  0  0  0  0  0
    6.6159   -3.2151    3.6497 C   0  0  0  0  0  0  0  0  0  0  0  0
    6.8768   -1.8498    3.6447 C   0  0  0  0  0  0  0  0  0  0  0  0
    6.2759   -1.0298    2.6887 C   0  0  0  0  0  0  0  0  0  0  0  0
    7.2170   -3.9688    4.6136 O   0  0  0  0  0  0  0  0  0  0  0  0
    0.5248    0.6542   -0.8101 H   0  0  0  0  0  0  0  0  0  0  0  0
    0.5777    0.3251    0.9369 H   0  0  0  0  0  0  0  0  0  0  0  0
    0.5864   -1.0284   -0.2399 H   0  0  0  0  0  0  0  0  0  0  0  0
    2.8407   -1.8571    0.7534 H   0  0  0  0  0  0  0  0  0  0  0  0
    2.8701   -0.5258    1.9243 H   0  0  0  0  0  0  0  0  0  0  0  0
    4.9835    0.3475    0.8809 H   0  0  0  0  0  0  0  0  0  0  0  0
    4.9900   -0.9826   -0.2658 H   0  0  0  0  0  0  0  0  0  0  0  0
    4.5271   -3.4124    0.9959 H   0  0  0  0  0  0  0  0  0  0  0  0
    5.5509   -4.8448    2.6981 H   0  0  0  0  0  0  0  0  0  0  0  0
    7.5400   -1.4240    4.3918 H   0  0  0  0  0  0  0  0  0  0  0  0
    6.4848    0.0377    2.7008 H   0  0  0  0  0  0  0  0  0  0  0  0
    6.9714   -4.8984    4.4805 H   0  0  0  0  0  0  0  0  0  0  0  0
  1  2  1  0  0  0  0
  1 13  1  0  0  0  0
  1 14  1  0  0  0  0
  1 15  1  0  0  0  0
  2  3  2  0  0  0  0
  2  4  1  0  0  0  0
  4  5  1  0  0  0  0
  4 16  1  0  0  0  0
  4 17  1  0  0  0  0
  5  6  1  0  0  0  0
  5 18  1  0  0  0  0
  5 19  1  0  0  0  0
  6  7  2  0  0  0  0
  6 11  1  0  0  0  0
  7  8  1  0  0  0  0
  7 20  1  0  0  0  0
  8  9  2  0  0  0  0
  8 21  1  0  0  0  0
  9 10  1  0  0  0  0
  9 12  1  0  0  0  0
 10 11  2  0  0  0  0
 10 22  1  0  0  0  0
 11 23  1  0  0  0  0
 12 24  1  0  0  0  0
M  END
$$$$
