
 OpenBabel07222214433D

 26 26  0  0  0  0  0  0  0  0999 V2000
    1.0577    0.2203   -0.3706 C   0  0  0  0  0  0  0  0  0  0  0  0
    2.4795    0.3534   -0.3690 O   0  0  0  0  0  0  0  0  0  0  0  0
    3.1262   -0.5051   -1.2177 C   0  0  0  0  0  0  0  0  0  0  0  0
    2.7136   -0.4749   -2.5053 N   0  0  0  0  0  0  0  0  0  0  0  0
    3.4755   -1.1666   -3.3731 C   0  0  0  0  0  0  0  0  0  0  0  0
    4.6034   -1.8726   -2.9856 C   0  0  0  0  0  0  0  0  0  0  0  0
    5.0035   -1.9412   -1.6968 N   0  0  0  0  0  0  0  0  0  0  0  0
    4.2570   -1.2458   -0.7924 C   0  0  0  0  0  0  0  0  0  0  0  0
    4.7247   -1.4078    0.6465 C   0  0  0  0  0  0  0  0  0  0  0  0
    3.8018   -0.8353    1.7304 C   0  0  0  0  0  0  0  0  0  0  0  0
    2.4760   -1.6040    1.7562 C   0  0  0  0  0  0  0  0  0  0  0  0
    4.3785   -0.8698    3.1380 C   0  0  0  0  0  0  0  0  0  0  0  0
    0.6926    0.7330    0.5284 H   0  0  0  0  0  0  0  0  0  0  0  0
    0.7240   -0.8211   -0.2949 H   0  0  0  0  0  0  0  0  0  0  0  0
    0.6058    0.6913   -1.2437 H   0  0  0  0  0  0  0  0  0  0  0  0
    3.1658   -1.1243   -4.4095 H   0  0  0  0  0  0  0  0  0  0  0  0
    5.2169   -2.3978   -3.7053 H   0  0  0  0  0  0  0  0  0  0  0  0
    5.7267   -0.9655    0.7296 H   0  0  0  0  0  0  0  0  0  0  0  0
    4.8531   -2.4845    0.8368 H   0  0  0  0  0  0  0  0  0  0  0  0
    3.6545    0.2287    1.5139 H   0  0  0  0  0  0  0  0  0  0  0  0
    2.5680   -2.5564    2.2813 H   0  0  0  0  0  0  0  0  0  0  0  0
    2.1295   -1.8801    0.7606 H   0  0  0  0  0  0  0  0  0  0  0  0
    1.7013   -1.0002    2.2376 H   0  0  0  0  0  0  0  0  0  0  0  0
    4.4638   -1.8958    3.5061 H   0  0  0  0  0  0  0  0  0  0  0  0
    3.7008   -0.3264    3.8090 H   0  0  0  0  0  0  0  0  0  0  0  0
    5.3577   -0.3883    3.1886 H   0  0  0  0  0  0  0  0  0  0  0  0
  1  2  1  0  0  0  0
  1 13  1  0  0  0  0
  1 14  1  0  0  0  0
  1 15  1  0  0  0  0
  2  3  1  0  0  0  0
  3  4  1  0  0  0  0
  3  8  2  0  0  0  0
  4  5  2  0  0  0  0
  5  6  1  0  0  0  0
  5 16  1  0  0  0  0
  6  7  2  0  0  0  0
  6 17  1  0  0  0  0
  7  8  1  0  0  0  0
  8  9  1  0  0  0  0
  9 10  1  0  0  0  0
  9 18  1  0  0  0  0
  9 19  1  0  0  0  0
 10 11  1  0  0  0  0
 10 12  1  0  0  0  0
 10 20  1  0  0  0  0
 11 21  1  0  0  0  0
 11 22  1  0  0  0  0
 11 23  1  0  0  0  0
 12 24  1  0  0  0  0
 12 25  1  0  0  0  0
 12 26  1  0  0  0  0
M  END
$$$$
