
 OpenBabel07202215583D

 19 19  0  0  0  0  0  0  0  0999 V2000
    1.0369    0.1250    0.0308 C   0  0  0  0  0  0  0  0  0  0  0  0
    2.5645    0.0810    0.0500 C   0  0  0  0  0  0  0  0  0  0  0  0
    3.0866   -1.2700    0.5634 C   0  0  0  0  0  0  0  0  0  0  0  0
    3.3237   -0.9868    2.3346 S   0  0  0  0  0  0  0  0  0  0  0  0
    3.4744    0.7228    2.0434 C   0  0  0  0  0  0  0  0  0  0  0  0
    3.0865    1.1847    0.8981 N   0  0  0  0  0  0  0  0  0  0  0  0
    4.0696    1.5662    3.1227 C   0  0  0  0  0  0  0  0  0  0  0  0
    4.4207   -1.6511   -0.0652 C   0  0  0  0  0  0  0  0  0  0  0  0
    0.6439   -0.6596   -0.6261 H   0  0  0  0  0  0  0  0  0  0  0  0
    0.6752    1.0883   -0.3426 H   0  0  0  0  0  0  0  0  0  0  0  0
    0.6129   -0.0269    1.0285 H   0  0  0  0  0  0  0  0  0  0  0  0
    2.9109    0.2482   -0.9781 H   0  0  0  0  0  0  0  0  0  0  0  0
    2.3658   -2.0785    0.4080 H   0  0  0  0  0  0  0  0  0  0  0  0
    4.3633    0.9617    3.9860 H   0  0  0  0  0  0  0  0  0  0  0  0
    3.3428    2.3146    3.4489 H   0  0  0  0  0  0  0  0  0  0  0  0
    4.9584    2.0776    2.7409 H   0  0  0  0  0  0  0  0  0  0  0  0
    5.1615   -0.8469    0.0086 H   0  0  0  0  0  0  0  0  0  0  0  0
    4.2811   -1.8726   -1.1287 H   0  0  0  0  0  0  0  0  0  0  0  0
    4.8367   -2.5484    0.4058 H   0  0  0  0  0  0  0  0  0  0  0  0
  1  2  1  0  0  0  0
  1  9  1  0  0  0  0
  1 10  1  0  0  0  0
  1 11  1  0  0  0  0
  2  3  1  0  0  0  0
  2  6  1  0  0  0  0
  2 12  1  0  0  0  0
  3  4  1  0  0  0  0
  3  8  1  0  0  0  0
  3 13  1  0  0  0  0
  4  5  1  0  0  0  0
  5  6  2  0  0  0  0
  5  7  1  0  0  0  0
  7 14  1  0  0  0  0
  7 15  1  0  0  0  0
  7 16  1  0  0  0  0
  8 17  1  0  0  0  0
  8 18  1  0  0  0  0
  8 19  1  0  0  0  0
M  END
$$$$
