
 OpenBabel07202215583D

 38 39  0  0  1  0  0  0  0  0999 V2000
    0.8965    0.1882   -0.0184 C   0  0  0  0  0  0  0  0  0  0  0  0
    2.4330    0.0715   -0.0988 C   0  0  2  0  0  0  0  0  0  0  0  0
    2.9626    1.1843   -0.9864 C   0  0  0  0  0  0  0  0  0  0  0  0
    4.3945    0.9275   -1.4245 C   0  0  0  0  0  0  0  0  0  0  0  0
    5.2023    1.8203   -1.4931 O   0  0  0  0  0  0  0  0  0  0  0  0
    4.7665   -0.4759   -1.8518 C   0  0  0  0  0  0  0  0  0  0  0  0
    4.1877   -1.5704   -1.3070 C   0  0  0  0  0  0  0  0  0  0  0  0
    2.8387   -1.3681   -0.5775 C   0  0  1  0  0  0  0  0  0  0  0  0
    2.5666   -2.3148    0.5982 C   0  0  0  0  0  0  0  0  0  0  0  0
    2.6944   -3.8049    0.2543 C   0  0  1  0  0  0  0  0  0  0  0  0
    4.0513   -4.0712   -0.5284 C   0  0  0  0  0  0  0  0  0  0  0  0
    4.4207   -3.0863   -1.7277 C   0  0  0  0  0  0  0  0  0  0  0  0
    2.3897   -4.6547    1.4902 C   0  0  0  0  0  0  0  0  0  0  0  0
    2.0286   -4.1572    2.6920 C   0  0  0  0  0  0  0  0  0  0  0  0
    2.3754   -6.1377    1.2699 C   0  0  0  0  0  0  0  0  0  0  0  0
    1.9822   -1.8850   -1.7412 C   0  0  0  0  0  0  0  0  0  0  0  0
    0.5608    1.2053    0.1931 H   0  0  0  0  0  0  0  0  0  0  0  0
    0.4726   -0.4565    0.7567 H   0  0  0  0  0  0  0  0  0  0  0  0
    0.4476   -0.1069   -0.9716 H   0  0  0  0  0  0  0  0  0  0  0  0
    2.8349    0.2675    0.9136 H   0  0  0  0  0  0  0  0  0  0  0  0
    2.9332    2.1333   -0.4273 H   0  0  0  0  0  0  0  0  0  0  0  0
    2.3344    1.3261   -1.8707 H   0  0  0  0  0  0  0  0  0  0  0  0
    5.4370   -0.4977   -2.7090 H   0  0  0  0  0  0  0  0  0  0  0  0
    1.5170   -2.1729    0.8952 H   0  0  0  0  0  0  0  0  0  0  0  0
    3.1687   -2.0463    1.4779 H   0  0  0  0  0  0  0  0  0  0  0  0
    1.8475   -4.0824   -0.4000 H   0  0  0  0  0  0  0  0  0  0  0  0
    4.0324   -5.1061   -0.9057 H   0  0  0  0  0  0  0  0  0  0  0  0
    4.8637   -4.0050    0.1961 H   0  0  0  0  0  0  0  0  0  0  0  0
    3.7747   -3.3620   -2.5886 H   0  0  0  0  0  0  0  0  0  0  0  0
    5.3873   -3.2931   -2.2125 H   0  0  0  0  0  0  0  0  0  0  0  0
    1.9173   -3.0937    2.8890 H   0  0  0  0  0  0  0  0  0  0  0  0
    1.8163   -4.7897    3.5467 H   0  0  0  0  0  0  0  0  0  0  0  0
    2.5081   -6.3877    0.2129 H   0  0  0  0  0  0  0  0  0  0  0  0
    1.4168   -6.5760    1.5720 H   0  0  0  0  0  0  0  0  0  0  0  0
    3.1902   -6.5893    1.8371 H   0  0  0  0  0  0  0  0  0  0  0  0
    2.2716   -1.4867   -2.7200 H   0  0  0  0  0  0  0  0  0  0  0  0
    0.9451   -2.1640   -1.6087 H   0  0  0  0  0  0  0  0  0  0  0  0
    2.2807   -2.9086   -1.8204 H   0  0  0  0  0  0  0  0  0  0  0  0
  1  2  1  0  0  0  0
  1 17  1  0  0  0  0
  1 18  1  0  0  0  0
  1 19  1  0  0  0  0
  2  3  1  0  0  0  0
  2  8  1  0  0  0  0
  2 20  1  1  0  0  0
  3  4  1  0  0  0  0
  3 21  1  0  0  0  0
  3 22  1  0  0  0  0
  4  5  2  0  0  0  0
  4  6  1  0  0  0  0
  6  7  2  0  0  0  0
  6 23  1  0  0  0  0
  7  8  1  0  0  0  0
  7 12  1  0  0  0  0
  8  9  1  0  0  0  0
  8 16  1  6  0  0  0
  9 10  1  0  0  0  0
  9 24  1  0  0  0  0
  9 25  1  0  0  0  0
 10 11  1  0  0  0  0
 10 13  1  0  0  0  0
 10 26  1  6  0  0  0
 11 12  1  0  0  0  0
 11 27  1  0  0  0  0
 11 28  1  0  0  0  0
 12 29  1  0  0  0  0
 12 30  1  0  0  0  0
 13 14  2  0  0  0  0
 13 15  1  0  0  0  0
 14 31  1  0  0  0  0
 14 32  1  0  0  0  0
 15 33  1  0  0  0  0
 15 34  1  0  0  0  0
 15 35  1  0  0  0  0
 16 36  1  0  0  0  0
 16 37  1  0  0  0  0
 16 38  1  0  0  0  0
M  END
$$$$
