
 OpenBabel07202215583D

 35 34  0  0  0  0  0  0  0  0999 V2000
    1.0650    0.0533    0.0560 C   0  0  0  0  0  0  0  0  0  0  0  0
    2.5877    0.0340    0.0455 C   0  0  0  0  0  0  0  0  0  0  0  0
    3.1343   -1.2203   -0.6495 C   0  0  0  0  0  0  0  0  0  0  0  0
    4.6680   -1.2490   -0.6623 C   0  0  0  0  0  0  0  0  0  0  0  0
    5.1557   -2.4440   -1.3200 O   0  0  0  0  0  0  0  0  0  0  0  0
    6.5274   -2.5401   -1.3852 C   0  0  0  0  0  0  0  0  0  0  0  0
    7.2842   -1.7062   -0.8978 O   0  0  0  0  0  0  0  0  0  0  0  0
    6.9990   -3.8198   -2.1223 C   0  0  0  0  0  0  0  0  0  0  0  0
    6.4335   -3.8225   -3.5421 C   0  0  0  0  0  0  0  0  0  0  0  0
    8.4576   -3.8606   -2.1638 O   0  0  0  0  0  0  0  0  0  0  0  0
    9.0329   -4.9814   -2.6849 C   0  0  0  0  0  0  0  0  0  0  0  0
    8.4031   -5.9477   -3.1046 O   0  0  0  0  0  0  0  0  0  0  0  0
   10.5490   -4.9069   -2.6866 C   0  0  0  0  0  0  0  0  0  0  0  0
   11.1365   -6.1441   -3.3823 C   0  0  0  0  0  0  0  0  0  0  0  0
   12.6550   -6.1549   -3.3906 C   0  0  0  0  0  0  0  0  0  0  0  0
    0.6948    0.9547    0.5564 H   0  0  0  0  0  0  0  0  0  0  0  0
    0.6661   -0.8159    0.5886 H   0  0  0  0  0  0  0  0  0  0  0  0
    0.6662    0.0455   -0.9633 H   0  0  0  0  0  0  0  0  0  0  0  0
    2.9503    0.0797    1.0794 H   0  0  0  0  0  0  0  0  0  0  0  0
    2.9507    0.9352   -0.4631 H   0  0  0  0  0  0  0  0  0  0  0  0
    2.7565   -1.2669   -1.6782 H   0  0  0  0  0  0  0  0  0  0  0  0
    2.7541   -2.1173   -0.1460 H   0  0  0  0  0  0  0  0  0  0  0  0
    5.0369   -1.2299    0.3698 H   0  0  0  0  0  0  0  0  0  0  0  0
    5.0387   -0.3665   -1.1975 H   0  0  0  0  0  0  0  0  0  0  0  0
    6.6469   -4.6819   -1.5412 H   0  0  0  0  0  0  0  0  0  0  0  0
    6.8030   -2.9560   -4.0996 H   0  0  0  0  0  0  0  0  0  0  0  0
    5.3405   -3.8045   -3.5432 H   0  0  0  0  0  0  0  0  0  0  0  0
    6.7371   -4.7054   -4.1110 H   0  0  0  0  0  0  0  0  0  0  0  0
   10.9026   -4.8647   -1.6508 H   0  0  0  0  0  0  0  0  0  0  0  0
   10.8740   -4.0031   -3.2144 H   0  0  0  0  0  0  0  0  0  0  0  0
   10.7742   -6.1946   -4.4169 H   0  0  0  0  0  0  0  0  0  0  0  0
   10.7805   -7.0536   -2.8823 H   0  0  0  0  0  0  0  0  0  0  0  0
   13.0514   -5.2868   -3.9253 H   0  0  0  0  0  0  0  0  0  0  0  0
   13.0222   -7.0575   -3.8918 H   0  0  0  0  0  0  0  0  0  0  0  0
   13.0525   -6.1502   -2.3713 H   0  0  0  0  0  0  0  0  0  0  0  0
  1  2  1  0  0  0  0
  1 16  1  0  0  0  0
  1 17  1  0  0  0  0
  1 18  1  0  0  0  0
  2  3  1  0  0  0  0
  2 19  1  0  0  0  0
  2 20  1  0  0  0  0
  3  4  1  0  0  0  0
  3 21  1  0  0  0  0
  3 22  1  0  0  0  0
  4  5  1  0  0  0  0
  4 23  1  0  0  0  0
  4 24  1  0  0  0  0
  5  6  1  0  0  0  0
  6  7  2  0  0  0  0
  6  8  1  0  0  0  0
  8  9  1  0  0  0  0
  8 10  1  0  0  0  0
  8 25  1  0  0  0  0
  9 26  1  0  0  0  0
  9 27  1  0  0  0  0
  9 28  1  0  0  0  0
 10 11  1  0  0  0  0
 11 12  2  0  0  0  0
 11 13  1  0  0  0  0
 13 14  1  0  0  0  0
 13 29  1  0  0  0  0
 13 30  1  0  0  0  0
 14 15  1  0  0  0  0
 14 31  1  0  0  0  0
 14 32  1  0  0  0  0
 15 33  1  0  0  0  0
 15 34  1  0  0  0  0
 15 35  1  0  0  0  0
M  END
$$$$
