
 OpenBabel07122215493D

 34 35  0  0  1  0  0  0  0  0999 V2000
    7.1584    1.5129    1.4654 C   0  0  0  0  0  0  0  0  0  0  0  0
    6.1563    2.5663    1.1062 C   0  0  0  0  0  0  0  0  0  0  0  0
    6.3073    3.6922    1.5081 O   0  0  0  0  0  0  0  0  0  0  0  0
    5.1856    2.2604    0.1755 O   0  0  0  0  0  0  0  0  0  0  0  0
    4.7790    1.0418   -0.5527 C   0  0  1  0  0  0  0  0  0  0  0  0
    5.2453    0.9878   -2.0357 C   0  0  0  0  0  0  0  0  0  0  0  0
    5.9083   -0.4262   -2.1827 C   0  0  2  0  0  0  0  0  0  0  0  0
    4.8032   -1.4804   -2.1084 C   0  0  0  0  0  0  0  0  0  0  0  0
    4.3667   -1.4252   -0.6493 C   0  0  0  0  0  0  0  0  0  0  0  0
    5.2760   -0.3128   -0.0062 C   0  0  1  0  0  0  0  0  0  0  0  0
    6.6759   -0.5711   -0.8521 C   0  0  0  0  0  0  0  0  0  0  0  0
    7.3055   -1.9151   -0.4840 C   0  0  0  0  0  0  0  0  0  0  0  0
    7.9498    0.3769   -1.0241 C   0  0  0  0  0  0  0  0  0  0  0  0
    5.0189   -0.4609    1.5110 C   0  0  0  0  0  0  0  0  0  0  0  0
    8.1862    1.8545    1.5334 H   0  0  0  0  0  0  0  0  0  0  0  0
    7.0704    1.1039    0.5187 H   0  0  0  0  0  0  0  0  0  0  0  0
    7.0575    0.5863    2.0271 H   0  0  0  0  0  0  0  0  0  0  0  0
    3.6785    1.0802   -0.5502 H   0  0  0  0  0  0  0  0  0  0  0  0
    5.9320    1.8044   -2.2719 H   0  0  0  0  0  0  0  0  0  0  0  0
    4.4020    1.0717   -2.7339 H   0  0  0  0  0  0  0  0  0  0  0  0
    6.5253   -0.5203   -3.0802 H   0  0  0  0  0  0  0  0  0  0  0  0
    5.1859   -2.4760   -2.3568 H   0  0  0  0  0  0  0  0  0  0  0  0
    3.9756   -1.2609   -2.7883 H   0  0  0  0  0  0  0  0  0  0  0  0
    4.5318   -2.3938   -0.1593 H   0  0  0  0  0  0  0  0  0  0  0  0
    3.2957   -1.2096   -0.5520 H   0  0  0  0  0  0  0  0  0  0  0  0
    6.6474   -2.7741   -0.5939 H   0  0  0  0  0  0  0  0  0  0  0  0
    7.6363   -1.8782    0.5620 H   0  0  0  0  0  0  0  0  0  0  0  0
    8.1926   -2.1034   -1.0986 H   0  0  0  0  0  0  0  0  0  0  0  0
    7.7037    1.4374   -1.1898 H   0  0  0  0  0  0  0  0  0  0  0  0
    8.6140    0.1133   -1.8498 H   0  0  0  0  0  0  0  0  0  0  0  0
    8.6017    0.2973   -0.1383 H   0  0  0  0  0  0  0  0  0  0  0  0
    3.9422   -0.5124    1.7269 H   0  0  0  0  0  0  0  0  0  0  0  0
    5.2753    0.3839    2.1465 H   0  0  0  0  0  0  0  0  0  0  0  0
    5.5000   -1.3520    1.9188 H   0  0  0  0  0  0  0  0  0  0  0  0
  1  2  1  0  0  0  0
  1 15  1  0  0  0  0
  1 16  1  0  0  0  0
  1 17  1  0  0  0  0
  2  3  2  0  0  0  0
  2  4  1  0  0  0  0
  5  6  1  0  0  0  0
  5 10  1  0  0  0  0
  5  4  1  0  0  0  0
  5 18  1  6  0  0  0
  6  7  1  0  0  0  0
  6 19  1  0  0  0  0
  6 20  1  0  0  0  0
  7  8  1  0  0  0  0
  7 11  1  0  0  0  0
  7 21  1  6  0  0  0
  8  9  1  0  0  0  0
  8 22  1  0  0  0  0
  8 23  1  0  0  0  0
  9 10  1  0  0  0  0
  9 24  1  0  0  0  0
  9 25  1  0  0  0  0
 10 11  1  0  0  0  0
 10 14  1  1  0  0  0
 11 12  1  0  0  0  0
 11 13  1  0  0  0  0
 12 26  1  0  0  0  0
 12 27  1  0  0  0  0
 12 28  1  0  0  0  0
 13 29  1  0  0  0  0
 13 30  1  0  0  0  0
 13 31  1  0  0  0  0
 14 32  1  0  0  0  0
 14 33  1  0  0  0  0
 14 34  1  0  0  0  0
M  END
$$$$
