
 OpenBabel07222214433D

 30 29  0  0  0  0  0  0  0  0999 V2000
    1.0417   -0.0624    0.0949 C   0  0  0  0  0  0  0  0  0  0  0  0
    2.5752   -0.0065    0.1040 C   0  0  0  0  0  0  0  0  0  0  0  0
    3.0691    1.4446    0.2442 C   0  0  0  0  0  0  0  0  0  0  0  0
    2.5938    2.3118   -0.9107 C   0  0  0  0  0  0  0  0  0  0  0  0
    3.0827    3.7197   -0.7945 C   0  0  0  0  0  0  0  0  0  0  0  0
    2.7566    4.6663   -1.6950 C   0  0  0  0  0  0  0  0  0  0  0  0
    3.2647    6.0671   -1.5297 C   0  0  0  0  0  0  0  0  0  0  0  0
    1.8895    4.3313   -2.8858 C   0  0  0  0  0  0  0  0  0  0  0  0
    1.6768    5.4554   -3.7186 O   0  0  0  0  0  0  0  0  0  0  0  0
    3.1094   -0.8702    1.2531 C   0  0  0  0  0  0  0  0  0  0  0  0
    4.6164   -0.9331    1.2865 C   0  0  0  0  0  0  0  0  0  0  0  0
    5.2375   -1.5356    2.1612 O   0  0  0  0  0  0  0  0  0  0  0  0
    0.6171    0.4843   -0.7525 H   0  0  0  0  0  0  0  0  0  0  0  0
    0.6334    0.3740    1.0133 H   0  0  0  0  0  0  0  0  0  0  0  0
    0.6830   -1.0917    0.0104 H   0  0  0  0  0  0  0  0  0  0  0  0
    2.9427   -0.4143   -0.8477 H   0  0  0  0  0  0  0  0  0  0  0  0
    4.1647    1.4774    0.2634 H   0  0  0  0  0  0  0  0  0  0  0  0
    2.7278    1.8637    1.1989 H   0  0  0  0  0  0  0  0  0  0  0  0
    1.5009    2.3422   -0.9263 H   0  0  0  0  0  0  0  0  0  0  0  0
    2.9439    1.8718   -1.8526 H   0  0  0  0  0  0  0  0  0  0  0  0
    3.7080    3.9711    0.0603 H   0  0  0  0  0  0  0  0  0  0  0  0
    3.8826    6.1757   -0.6317 H   0  0  0  0  0  0  0  0  0  0  0  0
    2.4283    6.7660   -1.4335 H   0  0  0  0  0  0  0  0  0  0  0  0
    3.8769    6.3516   -2.3901 H   0  0  0  0  0  0  0  0  0  0  0  0
    0.9101    3.9623   -2.5591 H   0  0  0  0  0  0  0  0  0  0  0  0
    2.3643    3.5534   -3.4938 H   0  0  0  0  0  0  0  0  0  0  0  0
    1.1973    6.1082   -3.1834 H   0  0  0  0  0  0  0  0  0  0  0  0
    2.7421   -1.8964    1.1429 H   0  0  0  0  0  0  0  0  0  0  0  0
    2.7621   -0.4743    2.2139 H   0  0  0  0  0  0  0  0  0  0  0  0
    5.1599   -0.4157    0.4799 H   0  0  0  0  0  0  0  0  0  0  0  0
  1  2  1  0  0  0  0
  1 13  1  0  0  0  0
  1 14  1  0  0  0  0
  1 15  1  0  0  0  0
  2  3  1  0  0  0  0
  2 10  1  0  0  0  0
  2 16  1  0  0  0  0
  3  4  1  0  0  0  0
  3 17  1  0  0  0  0
  3 18  1  0  0  0  0
  4  5  1  0  0  0  0
  4 19  1  0  0  0  0
  4 20  1  0  0  0  0
  5  6  2  0  0  0  0
  5 21  1  0  0  0  0
  6  7  1  0  0  0  0
  6  8  1  0  0  0  0
  7 22  1  0  0  0  0
  7 23  1  0  0  0  0
  7 24  1  0  0  0  0
  8  9  1  0  0  0  0
  8 25  1  0  0  0  0
  8 26  1  0  0  0  0
  9 27  1  0  0  0  0
 10 11  1  0  0  0  0
 10 28  1  0  0  0  0
 10 29  1  0  0  0  0
 11 12  2  0  0  0  0
 11 30  1  0  0  0  0
M  END
$$$$
