
 OpenBabel07122215493D

 14 13  0  0  0  0  0  0  0  0999 V2000
    1.0566   -0.0533    0.0394 C   0  0  0  0  0  0  0  0  0  0  0  0
    2.5736   -0.0672    0.0522 C   0  0  0  0  0  0  0  0  0  0  0  0
    3.1626    0.9652   -0.9003 C   0  0  0  0  0  0  0  0  0  0  0  0
    4.6744    1.0237   -0.9541 C   0  0  0  0  0  0  0  0  0  0  0  0
    5.3541    0.1692   -0.1658 O   0  0  0  0  0  0  0  0  0  0  0  0
    5.2648    1.8131   -1.6825 O   0  0  0  0  0  0  0  0  0  0  0  0
    0.6726   -0.8065    0.7343 H   0  0  0  0  0  0  0  0  0  0  0  0
    0.6717   -0.2809   -0.9593 H   0  0  0  0  0  0  0  0  0  0  0  0
    0.6717    0.9239    0.3466 H   0  0  0  0  0  0  0  0  0  0  0  0
    2.9205   -1.0688   -0.2272 H   0  0  0  0  0  0  0  0  0  0  0  0
    2.9205    0.1309    1.0731 H   0  0  0  0  0  0  0  0  0  0  0  0
    2.8090    1.9635   -0.6140 H   0  0  0  0  0  0  0  0  0  0  0  0
    2.8090    0.7602   -1.9183 H   0  0  0  0  0  0  0  0  0  0  0  0
    4.8365   -0.4364    0.3929 H   0  0  0  0  0  0  0  0  0  0  0  0
  1  2  1  0  0  0  0
  1  7  1  0  0  0  0
  1  8  1  0  0  0  0
  1  9  1  0  0  0  0
  2  3  1  0  0  0  0
  2 10  1  0  0  0  0
  2 11  1  0  0  0  0
  3  4  1  0  0  0  0
  3 12  1  0  0  0  0
  3 13  1  0  0  0  0
  4  5  1  0  0  0  0
  4  6  2  0  0  0  0
  5 14  1  0  0  0  0
M  END
$$$$
