
 OpenBabel07222214433D

 17 17  0  0  0  0  0  0  0  0999 V2000
    1.1582   -0.0347   -0.1019 C   0  0  0  0  0  0  0  0  0  0  0  0
    2.9770   -0.0546   -0.0491 S   0  0  0  0  0  0  0  0  0  0  0  0
    3.4724    0.5077   -1.9651 S   0  0  0  0  0  0  0  0  0  0  0  0
    5.3127    0.5172   -1.9665 C   0  0  0  0  0  0  0  0  0  0  0  0
    5.7874    1.0911   -3.2576 C   0  0  0  0  0  0  0  0  0  0  0  0
    6.2515    0.2316   -4.2144 O   0  0  0  0  0  0  0  0  0  0  0  0
    6.5451    0.9821   -5.3110 C   0  0  0  0  0  0  0  0  0  0  0  0
    6.2906    2.3142   -5.0665 C   0  0  0  0  0  0  0  0  0  0  0  0
    5.8295    2.3849   -3.7331 C   0  0  0  0  0  0  0  0  0  0  0  0
    0.7698   -0.3506    0.8714 H   0  0  0  0  0  0  0  0  0  0  0  0
    0.7788   -0.7297   -0.8568 H   0  0  0  0  0  0  0  0  0  0  0  0
    0.7811    0.9724   -0.3034 H   0  0  0  0  0  0  0  0  0  0  0  0
    5.6969   -0.4968   -1.8152 H   0  0  0  0  0  0  0  0  0  0  0  0
    5.6738    1.1526   -1.1498 H   0  0  0  0  0  0  0  0  0  0  0  0
    6.9043    0.4410   -6.1742 H   0  0  0  0  0  0  0  0  0  0  0  0
    6.4115    3.1279   -5.7652 H   0  0  0  0  0  0  0  0  0  0  0  0
    5.5177    3.2637   -3.1853 H   0  0  0  0  0  0  0  0  0  0  0  0
  1  2  1  0  0  0  0
  1 10  1  0  0  0  0
  1 11  1  0  0  0  0
  1 12  1  0  0  0  0
  2  3  1  0  0  0  0
  3  4  1  0  0  0  0
  4  5  1  0  0  0  0
  4 13  1  0  0  0  0
  4 14  1  0  0  0  0
  5  6  1  0  0  0  0
  5  9  2  0  0  0  0
  6  7  1  0  0  0  0
  7  8  2  0  0  0  0
  7 15  1  0  0  0  0
  8  9  1  0  0  0  0
  8 16  1  0  0  0  0
  9 17  1  0  0  0  0
M  END
$$$$
