
 OpenBabel07202215583D

 11 10  0  0  0  0  0  0  0  0999 V2000
    0.9113    0.0290   -0.0593 C   0  0  0  0  0  0  0  0  0  0  0  0
    2.4249    0.1169   -0.0600 C   0  0  0  0  0  0  0  0  0  0  0  0
    3.0066    1.5139   -0.0711 C   0  0  0  0  0  0  0  0  0  0  0  0
    2.1380    2.5431   -0.0793 O   0  0  0  0  0  0  0  0  0  0  0  0
    4.2164    1.7110   -0.0727 O   0  0  0  0  0  0  0  0  0  0  0  0
    0.5810   -1.0136   -0.0510 H   0  0  0  0  0  0  0  0  0  0  0  0
    0.4957    0.5086   -0.9516 H   0  0  0  0  0  0  0  0  0  0  0  0
    0.4957    0.5227    0.8253 H   0  0  0  0  0  0  0  0  0  0  0  0
    2.8087   -0.4071   -0.9433 H   0  0  0  0  0  0  0  0  0  0  0  0
    2.8087   -0.3930    0.8315 H   0  0  0  0  0  0  0  0  0  0  0  0
    1.1887    2.3292   -0.0776 H   0  0  0  0  0  0  0  0  0  0  0  0
  1  2  1  0  0  0  0
  1  6  1  0  0  0  0
  1  7  1  0  0  0  0
  1  8  1  0  0  0  0
  2  3  1  0  0  0  0
  2  9  1  0  0  0  0
  2 10  1  0  0  0  0
  3  4  1  0  0  0  0
  3  5  2  0  0  0  0
  4 11  1  0  0  0  0
M  END
$$$$
