
 OpenBabel07202215583D

 23 23  0  0  0  0  0  0  0  0999 V2000
    1.0520    0.0301    0.0641 O   0  0  0  0  0  0  0  0  0  0  0  0
    2.2822    0.0283    0.0893 C   0  0  0  0  0  0  0  0  0  0  0  0
    3.0637   -0.0158    1.3717 C   0  0  0  0  0  0  0  0  0  0  0  0
    4.5606   -0.0113    1.0951 C   0  0  0  0  0  0  0  0  0  0  0  0
    5.3369   -0.0634    2.4040 C   0  0  0  0  0  0  0  0  0  0  0  0
    6.8211   -0.0416    2.1704 C   0  0  0  0  0  0  0  0  0  0  0  0
    7.5446   -1.2353    2.0663 C   0  0  0  0  0  0  0  0  0  0  0  0
    8.9350   -1.2024    1.9736 C   0  0  0  0  0  0  0  0  0  0  0  0
    9.6006    0.0201    1.8945 C   0  0  0  0  0  0  0  0  0  0  0  0
    8.8804    1.2123    1.9375 C   0  0  0  0  0  0  0  0  0  0  0  0
    7.4952    1.1823    2.0799 C   0  0  0  0  0  0  0  0  0  0  0  0
    2.8628    0.0605   -0.8470 H   0  0  0  0  0  0  0  0  0  0  0  0
    2.7833   -0.9249    1.9142 H   0  0  0  0  0  0  0  0  0  0  0  0
    2.7885    0.8580    1.9719 H   0  0  0  0  0  0  0  0  0  0  0  0
    4.8321    0.8888    0.5281 H   0  0  0  0  0  0  0  0  0  0  0  0
    4.8286   -0.8668    0.4617 H   0  0  0  0  0  0  0  0  0  0  0  0
    5.0685   -0.9612    2.9752 H   0  0  0  0  0  0  0  0  0  0  0  0
    5.0636    0.7877    3.0413 H   0  0  0  0  0  0  0  0  0  0  0  0
    7.0323   -2.1948    2.0770 H   0  0  0  0  0  0  0  0  0  0  0  0
    9.5007   -2.1302    1.9787 H   0  0  0  0  0  0  0  0  0  0  0  0
   10.6824    0.0434    1.7984 H   0  0  0  0  0  0  0  0  0  0  0  0
    9.3977    2.1661    1.8828 H   0  0  0  0  0  0  0  0  0  0  0  0
    6.9424    2.1174    2.1338 H   0  0  0  0  0  0  0  0  0  0  0  0
  1  2  2  0  0  0  0
  2  3  1  0  0  0  0
  2 12  1  0  0  0  0
  3  4  1  0  0  0  0
  3 13  1  0  0  0  0
  3 14  1  0  0  0  0
  4  5  1  0  0  0  0
  4 15  1  0  0  0  0
  4 16  1  0  0  0  0
  5  6  1  0  0  0  0
  5 17  1  0  0  0  0
  5 18  1  0  0  0  0
  6  7  1  0  0  0  0
  6 11  2  0  0  0  0
  7  8  2  0  0  0  0
  7 19  1  0  0  0  0
  8  9  1  0  0  0  0
  8 20  1  0  0  0  0
  9 10  2  0  0  0  0
  9 21  1  0  0  0  0
 10 11  1  0  0  0  0
 10 22  1  0  0  0  0
 11 23  1  0  0  0  0
M  END
$$$$
