
 OpenBabel07122215493D

 23 23  0  0  0  0  0  0  0  0999 V2000
    0.9478    0.0487   -0.0615 O   0  0  0  0  0  0  0  0  0  0  0  0
    2.1780    0.0529   -0.0922 C   0  0  0  0  0  0  0  0  0  0  0  0
    2.9526    0.2334   -1.3689 C   0  0  0  0  0  0  0  0  0  0  0  0
    4.4523    0.1917   -1.1174 C   0  0  0  0  0  0  0  0  0  0  0  0
    5.2266    0.3654   -2.4268 C   0  0  0  0  0  0  0  0  0  0  0  0
    6.7069    0.3424   -2.1556 C   0  0  0  0  0  0  0  0  0  0  0  0
    7.3792   -0.8743   -1.9826 C   0  0  0  0  0  0  0  0  0  0  0  0
    8.7069   -0.8862   -1.5574 C   0  0  0  0  0  0  0  0  0  0  0  0
    9.3933    0.3140   -1.3793 C   0  0  0  0  0  0  0  0  0  0  0  0
    8.7427    1.5283   -1.5892 C   0  0  0  0  0  0  0  0  0  0  0  0
    7.4010    1.5435   -1.9651 C   0  0  0  0  0  0  0  0  0  0  0  0
    2.7617   -0.0778    0.8337 H   0  0  0  0  0  0  0  0  0  0  0  0
    2.6723    1.1982   -1.8037 H   0  0  0  0  0  0  0  0  0  0  0  0
    2.6667   -0.5688   -2.0567 H   0  0  0  0  0  0  0  0  0  0  0  0
    4.7222   -0.7588   -0.6377 H   0  0  0  0  0  0  0  0  0  0  0  0
    4.7317    0.9793   -0.4040 H   0  0  0  0  0  0  0  0  0  0  0  0
    4.9504    1.3149   -2.9024 H   0  0  0  0  0  0  0  0  0  0  0  0
    4.9647   -0.4259   -3.1396 H   0  0  0  0  0  0  0  0  0  0  0  0
    6.8650   -1.8175   -2.1535 H   0  0  0  0  0  0  0  0  0  0  0  0
    9.2015   -1.8311   -1.3490 H   0  0  0  0  0  0  0  0  0  0  0  0
   10.4360    0.3026   -1.0750 H   0  0  0  0  0  0  0  0  0  0  0  0
    9.2724    2.4648   -1.4377 H   0  0  0  0  0  0  0  0  0  0  0  0
    6.8935    2.4968   -2.0930 H   0  0  0  0  0  0  0  0  0  0  0  0
  1  2  2  0  0  0  0
  2  3  1  0  0  0  0
  2 12  1  0  0  0  0
  3  4  1  0  0  0  0
  3 13  1  0  0  0  0
  3 14  1  0  0  0  0
  4  5  1  0  0  0  0
  4 15  1  0  0  0  0
  4 16  1  0  0  0  0
  5  6  1  0  0  0  0
  5 17  1  0  0  0  0
  5 18  1  0  0  0  0
  6  7  1  0  0  0  0
  6 11  2  0  0  0  0
  7  8  2  0  0  0  0
  7 19  1  0  0  0  0
  8  9  1  0  0  0  0
  8 20  1  0  0  0  0
  9 10  2  0  0  0  0
  9 21  1  0  0  0  0
 10 11  1  0  0  0  0
 10 22  1  0  0  0  0
 11 23  1  0  0  0  0
M  END
$$$$
