
 OpenBabel07202215583D

 43 44  0  0  0  0  0  0  0  0999 V2000
    0.8562   -0.1138    0.0452 C   0  0  0  0  0  0  0  0  0  0  0  0
    2.3654    0.0473   -0.0479 C   0  0  0  0  0  0  0  0  0  0  0  0
    2.9462   -1.2775   -0.5546 C   0  0  0  0  0  0  0  0  0  0  0  0
    4.4278   -1.2121   -0.8109 C   0  0  0  0  0  0  0  0  0  0  0  0
    5.1061   -0.0540   -0.8849 C   0  0  0  0  0  0  0  0  0  0  0  0
    4.3964    1.2861   -0.7123 C   0  0  0  0  0  0  0  0  0  0  0  0
    2.8676    1.2172   -0.9391 C   0  0  0  0  0  0  0  0  0  0  0  0
    2.6099    0.9929   -2.4487 C   0  0  0  0  0  0  0  0  0  0  0  0
    2.2749    2.5829   -0.5409 C   0  0  0  0  0  0  0  0  0  0  0  0
    2.9788    3.5030   -0.0950 O   0  0  0  0  0  0  0  0  0  0  0  0
    0.7979    2.8262   -0.7043 C   0  0  0  0  0  0  0  0  0  0  0  0
    6.5928    0.0070   -1.1782 C   0  0  0  0  0  0  0  0  0  0  0  0
    7.3270   -1.3470   -1.3221 C   0  0  0  0  0  0  0  0  0  0  0  0
    6.5263   -2.6293   -1.2695 C   0  0  0  0  0  0  0  0  0  0  0  0
    5.0378   -2.5540   -1.0163 C   0  0  0  0  0  0  0  0  0  0  0  0
    6.7669    0.7108   -2.5418 C   0  0  0  0  0  0  0  0  0  0  0  0
    7.2641    0.7429   -0.0009 C   0  0  0  0  0  0  0  0  0  0  0  0
    0.5823   -1.0032    0.6175 H   0  0  0  0  0  0  0  0  0  0  0  0
    0.4121   -0.2043   -0.9503 H   0  0  0  0  0  0  0  0  0  0  0  0
    0.4131    0.7287    0.5767 H   0  0  0  0  0  0  0  0  0  0  0  0
    2.7344    0.2083    0.9772 H   0  0  0  0  0  0  0  0  0  0  0  0
    2.4502   -1.5766   -1.4891 H   0  0  0  0  0  0  0  0  0  0  0  0
    2.7266   -2.0695    0.1711 H   0  0  0  0  0  0  0  0  0  0  0  0
    4.7996    2.0436   -1.3928 H   0  0  0  0  0  0  0  0  0  0  0  0
    4.6177    1.6576    0.2985 H   0  0  0  0  0  0  0  0  0  0  0  0
    3.1034    0.0960   -2.8381 H   0  0  0  0  0  0  0  0  0  0  0  0
    2.9886    1.8318   -3.0429 H   0  0  0  0  0  0  0  0  0  0  0  0
    1.5453    0.8855   -2.6668 H   0  0  0  0  0  0  0  0  0  0  0  0
    0.2973    1.9936   -1.1964 H   0  0  0  0  0  0  0  0  0  0  0  0
    0.6308    3.7023   -1.3303 H   0  0  0  0  0  0  0  0  0  0  0  0
    0.3592    2.9712    0.2872 H   0  0  0  0  0  0  0  0  0  0  0  0
    8.1308   -1.4231   -0.5777 H   0  0  0  0  0  0  0  0  0  0  0  0
    7.8757   -1.3656   -2.2743 H   0  0  0  0  0  0  0  0  0  0  0  0
    6.9747   -3.2754   -0.5050 H   0  0  0  0  0  0  0  0  0  0  0  0
    6.6781   -3.1577   -2.2184 H   0  0  0  0  0  0  0  0  0  0  0  0
    4.8113   -3.1681   -0.1362 H   0  0  0  0  0  0  0  0  0  0  0  0
    4.5255   -3.0237   -1.8652 H   0  0  0  0  0  0  0  0  0  0  0  0
    6.2423    0.1321   -3.3172 H   0  0  0  0  0  0  0  0  0  0  0  0
    7.8203    0.7699   -2.8302 H   0  0  0  0  0  0  0  0  0  0  0  0
    6.3731    1.7280   -2.5812 H   0  0  0  0  0  0  0  0  0  0  0  0
    7.0806    0.1872    0.9320 H   0  0  0  0  0  0  0  0  0  0  0  0
    6.8869    1.7583    0.1508 H   0  0  0  0  0  0  0  0  0  0  0  0
    8.3478    0.8100   -0.1322 H   0  0  0  0  0  0  0  0  0  0  0  0
  1  2  1  0  0  0  0
  1 18  1  0  0  0  0
  1 19  1  0  0  0  0
  1 20  1  0  0  0  0
  2  3  1  0  0  0  0
  2  7  1  0  0  0  0
  2 21  1  0  0  0  0
  3  4  1  0  0  0  0
  3 22  1  0  0  0  0
  3 23  1  0  0  0  0
  4  5  2  0  0  0  0
  4 15  1  0  0  0  0
  5  6  1  0  0  0  0
  5 12  1  0  0  0  0
  6  7  1  0  0  0  0
  6 24  1  0  0  0  0
  6 25  1  0  0  0  0
  7  8  1  0  0  0  0
  7  9  1  0  0  0  0
  8 26  1  0  0  0  0
  8 27  1  0  0  0  0
  8 28  1  0  0  0  0
  9 10  2  0  0  0  0
  9 11  1  0  0  0  0
 11 29  1  0  0  0  0
 11 30  1  0  0  0  0
 11 31  1  0  0  0  0
 12 13  1  0  0  0  0
 12 16  1  0  0  0  0
 12 17  1  0  0  0  0
 13 14  1  0  0  0  0
 13 32  1  0  0  0  0
 13 33  1  0  0  0  0
 14 15  1  0  0  0  0
 14 34  1  0  0  0  0
 14 35  1  0  0  0  0
 15 36  1  0  0  0  0
 15 37  1  0  0  0  0
 16 38  1  0  0  0  0
 16 39  1  0  0  0  0
 16 40  1  0  0  0  0
 17 41  1  0  0  0  0
 17 42  1  0  0  0  0
 17 43  1  0  0  0  0
M  END
$$$$
