
 OpenBabel07122215493D

 32 32  0  0  0  0  0  0  0  0999 V2000
    0.9331    0.1078   -0.0830 C   0  0  0  0  0  0  0  0  0  0  0  0
    2.4642    0.1148   -0.0871 C   0  0  0  0  0  0  0  0  0  0  0  0
    2.9573    1.3258    0.7211 C   0  0  0  0  0  0  0  0  0  0  0  0
    2.9469   -1.2063    0.4720 C   0  0  0  0  0  0  0  0  0  0  0  0
    2.6500   -2.4191   -0.1719 C   0  0  0  0  0  0  0  0  0  0  0  0
    2.8756   -3.6406    0.4696 C   0  0  0  0  0  0  0  0  0  0  0  0
    3.5460   -3.6703    1.6940 C   0  0  0  0  0  0  0  0  0  0  0  0
    3.9561   -2.4553    2.2504 C   0  0  0  0  0  0  0  0  0  0  0  0
    3.6166   -1.2488    1.6868 C   0  0  0  0  0  0  0  0  0  0  0  0
    3.8516   -4.9852    2.3720 C   0  0  0  0  0  0  0  0  0  0  0  0
    4.5319   -4.8234    3.7424 C   0  0  0  0  0  0  0  0  0  0  0  0
    3.6056   -4.1710    4.7789 C   0  0  0  0  0  0  0  0  0  0  0  0
    4.9791   -6.1509    4.2919 C   0  0  0  0  0  0  0  0  0  0  0  0
    5.5987   -6.2516    5.3552 O   0  0  0  0  0  0  0  0  0  0  0  0
    0.5390    1.0433   -0.4873 H   0  0  0  0  0  0  0  0  0  0  0  0
    0.5459   -0.0175    0.9363 H   0  0  0  0  0  0  0  0  0  0  0  0
    0.5303   -0.7140   -0.6850 H   0  0  0  0  0  0  0  0  0  0  0  0
    2.8377    0.2110   -1.1138 H   0  0  0  0  0  0  0  0  0  0  0  0
    2.5906    1.2870    1.7562 H   0  0  0  0  0  0  0  0  0  0  0  0
    2.6057    2.2657    0.2925 H   0  0  0  0  0  0  0  0  0  0  0  0
    4.0535    1.3553    0.7547 H   0  0  0  0  0  0  0  0  0  0  0  0
    2.2023   -2.4171   -1.1632 H   0  0  0  0  0  0  0  0  0  0  0  0
    2.5216   -4.5591    0.0068 H   0  0  0  0  0  0  0  0  0  0  0  0
    4.5149   -2.3788    3.1760 H   0  0  0  0  0  0  0  0  0  0  0  0
    3.8856   -0.3619    2.2503 H   0  0  0  0  0  0  0  0  0  0  0  0
    4.5091   -5.5519    1.6987 H   0  0  0  0  0  0  0  0  0  0  0  0
    2.9295   -5.5718    2.4824 H   0  0  0  0  0  0  0  0  0  0  0  0
    5.4552   -4.2414    3.6077 H   0  0  0  0  0  0  0  0  0  0  0  0
    2.7412   -4.8088    4.9770 H   0  0  0  0  0  0  0  0  0  0  0  0
    3.1956   -3.2029    4.4811 H   0  0  0  0  0  0  0  0  0  0  0  0
    4.1454   -3.9939    5.7133 H   0  0  0  0  0  0  0  0  0  0  0  0
    4.7184   -7.0474    3.7122 H   0  0  0  0  0  0  0  0  0  0  0  0
  1  2  1  0  0  0  0
  1 15  1  0  0  0  0
  1 16  1  0  0  0  0
  1 17  1  0  0  0  0
  2  3  1  0  0  0  0
  2  4  1  0  0  0  0
  2 18  1  0  0  0  0
  3 19  1  0  0  0  0
  3 20  1  0  0  0  0
  3 21  1  0  0  0  0
  4  5  2  0  0  0  0
  4  9  1  0  0  0  0
  5  6  1  0  0  0  0
  5 22  1  0  0  0  0
  6  7  2  0  0  0  0
  6 23  1  0  0  0  0
  7  8  1  0  0  0  0
  7 10  1  0  0  0  0
  8  9  2  0  0  0  0
  8 24  1  0  0  0  0
  9 25  1  0  0  0  0
 10 11  1  0  0  0  0
 10 26  1  0  0  0  0
 10 27  1  0  0  0  0
 11 12  1  0  0  0  0
 11 13  1  0  0  0  0
 11 28  1  0  0  0  0
 12 29  1  0  0  0  0
 12 30  1  0  0  0  0
 12 31  1  0  0  0  0
 13 14  2  0  0  0  0
 13 32  1  0  0  0  0
M  END
$$$$
