
 OpenBabel07222214433D

  9  8  0  0  0  0  0  0  0  0999 V2000
    0.9963   -0.0641   -0.0803 C   0  0  0  0  0  0  0  0  0  0  0  0
    2.5135   -0.0725   -0.0783 C   0  0  0  0  0  0  0  0  0  0  0  0
    3.1509   -1.7392    0.2505 S   0  0  0  0  0  0  0  0  0  0  0  0
    0.6305    0.9427   -0.3083 H   0  0  0  0  0  0  0  0  0  0  0  0
    0.5910   -0.3498    0.8960 H   0  0  0  0  0  0  0  0  0  0  0  0
    0.5905   -0.7427   -0.8386 H   0  0  0  0  0  0  0  0  0  0  0  0
    2.8945    0.6101    0.6877 H   0  0  0  0  0  0  0  0  0  0  0  0
    2.8928    0.2600   -1.0488 H   0  0  0  0  0  0  0  0  0  0  0  0
    2.6014   -1.8839    1.4653 H   0  0  0  0  0  0  0  0  0  0  0  0
  1  2  1  0  0  0  0
  1  4  1  0  0  0  0
  1  5  1  0  0  0  0
  1  6  1  0  0  0  0
  2  3  1  0  0  0  0
  2  7  1  0  0  0  0
  2  8  1  0  0  0  0
  3  9  1  0  0  0  0
M  END
$$$$
