
 OpenBabel07222214433D

 25 25  0  0  0  0  0  0  0  0999 V2000
    0.9613    0.0456   -0.0292 C   0  0  0  0  0  0  0  0  0  0  0  0
    2.3027    0.0650   -0.0222 C   0  0  0  0  0  0  0  0  0  0  0  0
    3.0979    1.2597    0.4066 C   0  0  0  0  0  0  0  0  0  0  0  0
    4.5067    0.9782    0.3011 O   0  0  0  0  0  0  0  0  0  0  0  0
    5.2534    2.0359    0.7358 C   0  0  0  0  0  0  0  0  0  0  0  0
    4.7389    3.0644    1.1758 O   0  0  0  0  0  0  0  0  0  0  0  0
    6.7631    1.7968    0.5940 C   0  0  0  0  0  0  0  0  0  0  0  0
    7.5728    3.0215    1.0025 C   0  0  0  0  0  0  0  0  0  0  0  0
    8.6414    2.9493    1.9065 C   0  0  0  0  0  0  0  0  0  0  0  0
    9.1812    4.1252    2.4441 C   0  0  0  0  0  0  0  0  0  0  0  0
    8.7175    5.3732    2.0258 C   0  0  0  0  0  0  0  0  0  0  0  0
    7.7193    5.4522    1.0634 C   0  0  0  0  0  0  0  0  0  0  0  0
    7.1783    4.2858    0.5339 C   0  0  0  0  0  0  0  0  0  0  0  0
    0.4146   -0.8382   -0.3438 H   0  0  0  0  0  0  0  0  0  0  0  0
    0.3749    0.9078    0.2789 H   0  0  0  0  0  0  0  0  0  0  0  0
    2.8488   -0.8191   -0.3365 H   0  0  0  0  0  0  0  0  0  0  0  0
    2.8465    1.5006    1.4479 H   0  0  0  0  0  0  0  0  0  0  0  0
    2.8511    2.1080   -0.2455 H   0  0  0  0  0  0  0  0  0  0  0  0
    7.0071    1.5478   -0.4450 H   0  0  0  0  0  0  0  0  0  0  0  0
    7.0307    0.9468    1.2336 H   0  0  0  0  0  0  0  0  0  0  0  0
    9.0408    1.9921    2.2341 H   0  0  0  0  0  0  0  0  0  0  0  0
    9.9403    4.0733    3.2210 H   0  0  0  0  0  0  0  0  0  0  0  0
    9.1282    6.2849    2.4501 H   0  0  0  0  0  0  0  0  0  0  0  0
    7.3193    6.4133    0.7539 H   0  0  0  0  0  0  0  0  0  0  0  0
    6.3679    4.3743   -0.1871 H   0  0  0  0  0  0  0  0  0  0  0  0
  1  2  2  0  0  0  0
  1 14  1  0  0  0  0
  1 15  1  0  0  0  0
  2  3  1  0  0  0  0
  2 16  1  0  0  0  0
  3  4  1  0  0  0  0
  3 17  1  0  0  0  0
  3 18  1  0  0  0  0
  4  5  1  0  0  0  0
  5  6  2  0  0  0  0
  5  7  1  0  0  0  0
  7  8  1  0  0  0  0
  7 19  1  0  0  0  0
  7 20  1  0  0  0  0
  8  9  1  0  0  0  0
  8 13  2  0  0  0  0
  9 10  2  0  0  0  0
  9 21  1  0  0  0  0
 10 11  1  0  0  0  0
 10 22  1  0  0  0  0
 11 12  2  0  0  0  0
 11 23  1  0  0  0  0
 12 13  1  0  0  0  0
 12 24  1  0  0  0  0
 13 25  1  0  0  0  0
M  END
$$$$
