
 OpenBabel07202215583D

 24 25  0  0  0  0  0  0  0  0999 V2000
    1.1160   -0.0349    0.0925 C   0  0  0  0  0  0  0  0  0  0  0  0
    2.6190   -0.1001    0.0582 C   0  0  0  0  0  0  0  0  0  0  0  0
    3.2467   -0.9817   -0.5173 O   0  0  0  0  0  0  0  0  0  0  0  0
    3.1796    0.9355    0.7386 O   0  0  0  0  0  0  0  0  0  0  0  0
    4.6234    0.9443    0.7486 C   0  0  0  0  0  0  0  0  0  0  0  0
    5.0915    2.1697    1.5092 C   0  0  0  0  0  0  0  0  0  0  0  0
    5.8297    2.0747    2.7051 C   0  0  0  0  0  0  0  0  0  0  0  0
    6.1154    3.2431    3.3928 C   0  0  0  0  0  0  0  0  0  0  0  0
    5.7169    4.4740    2.9275 C   0  0  0  0  0  0  0  0  0  0  0  0
    5.0455    4.6118    1.7342 C   0  0  0  0  0  0  0  0  0  0  0  0
    4.7430    3.4497    1.0181 C   0  0  0  0  0  0  0  0  0  0  0  0
    6.0513    5.4883    3.7698 O   0  0  0  0  0  0  0  0  0  0  0  0
    6.6401    4.7495    4.8589 C   0  0  0  0  0  0  0  0  0  0  0  0
    6.7736    3.3371    4.5826 O   0  0  0  0  0  0  0  0  0  0  0  0
    0.7079   -0.8921   -0.4549 H   0  0  0  0  0  0  0  0  0  0  0  0
    0.7558    0.8751   -0.3946 H   0  0  0  0  0  0  0  0  0  0  0  0
    0.7503   -0.0908    1.1210 H   0  0  0  0  0  0  0  0  0  0  0  0
    5.0045    0.9960   -0.2794 H   0  0  0  0  0  0  0  0  0  0  0  0
    4.9937    0.0281    1.2228 H   0  0  0  0  0  0  0  0  0  0  0  0
    6.1527    1.1191    3.1059 H   0  0  0  0  0  0  0  0  0  0  0  0
    4.7415    5.5870    1.3728 H   0  0  0  0  0  0  0  0  0  0  0  0
    4.2072    3.5336    0.0746 H   0  0  0  0  0  0  0  0  0  0  0  0
    6.0093    4.8742    5.7484 H   0  0  0  0  0  0  0  0  0  0  0  0
    7.6283    5.1716    5.0758 H   0  0  0  0  0  0  0  0  0  0  0  0
  1  2  1  0  0  0  0
  1 15  1  0  0  0  0
  1 16  1  0  0  0  0
  1 17  1  0  0  0  0
  2  3  2  0  0  0  0
  2  4  1  0  0  0  0
  4  5  1  0  0  0  0
  5  6  1  0  0  0  0
  5 18  1  0  0  0  0
  5 19  1  0  0  0  0
  6  7  2  0  0  0  0
  6 11  1  0  0  0  0
  7  8  1  0  0  0  0
  7 20  1  0  0  0  0
  8  9  2  0  0  0  0
  8 14  1  0  0  0  0
  9 10  1  0  0  0  0
  9 12  1  0  0  0  0
 10 11  2  0  0  0  0
 10 21  1  0  0  0  0
 11 22  1  0  0  0  0
 12 13  1  0  0  0  0
 13 14  1  0  0  0  0
 13 23  1  0  0  0  0
 13 24  1  0  0  0  0
M  END
$$$$
