
 OpenBabel07202215583D

 31 31  0  0  1  0  0  0  0  0999 V2000
    1.0142    0.0138   -0.1752 C   0  0  0  0  0  0  0  0  0  0  0  0
    2.5376   -0.0039    0.0026 C   0  0  0  0  0  0  0  0  0  0  0  0
    3.1140    1.3652   -0.3792 C   0  0  0  0  0  0  0  0  0  0  0  0
    2.9947   -0.4806    1.4193 C   0  0  2  0  0  0  0  0  0  0  0  0
    2.0950   -1.6207    1.9436 C   0  0  0  0  0  0  0  0  0  0  0  0
    2.4633   -2.0961    3.3406 C   0  0  0  0  0  0  0  0  0  0  0  0
    2.5124   -0.9305    4.3315 C   0  0  1  0  0  0  0  0  0  0  0  0
    2.9284   -1.4209    5.7106 C   0  0  0  0  0  0  0  0  0  0  0  0
    3.4724    0.1592    3.8460 C   0  0  0  0  0  0  0  0  0  0  0  0
    3.1101    0.6616    2.4537 C   0  0  2  0  0  0  0  0  0  0  0  0
    1.8970    1.4077    2.5444 O   0  0  0  0  0  0  0  0  0  0  0  0
    0.7325    0.3809   -1.1652 H   0  0  0  0  0  0  0  0  0  0  0  0
    0.5293    0.6509    0.5689 H   0  0  0  0  0  0  0  0  0  0  0  0
    0.5941   -0.9939   -0.0870 H   0  0  0  0  0  0  0  0  0  0  0  0
    2.9291   -0.7313   -0.7229 H   0  0  0  0  0  0  0  0  0  0  0  0
    2.7542    2.1580    0.2847 H   0  0  0  0  0  0  0  0  0  0  0  0
    2.8137    1.6487   -1.3923 H   0  0  0  0  0  0  0  0  0  0  0  0
    4.2080    1.3561   -0.3379 H   0  0  0  0  0  0  0  0  0  0  0  0
    4.0084   -0.8975    1.3051 H   0  0  0  0  0  0  0  0  0  0  0  0
    2.1203   -2.4681    1.2477 H   0  0  0  0  0  0  0  0  0  0  0  0
    1.0536   -1.2857    1.9995 H   0  0  0  0  0  0  0  0  0  0  0  0
    3.4246   -2.6215    3.3109 H   0  0  0  0  0  0  0  0  0  0  0  0
    1.7096   -2.8232    3.6687 H   0  0  0  0  0  0  0  0  0  0  0  0
    1.5047   -0.5026    4.4190 H   0  0  0  0  0  0  0  0  0  0  0  0
    3.9253   -1.8720    5.6802 H   0  0  0  0  0  0  0  0  0  0  0  0
    2.2219   -2.1700    6.0806 H   0  0  0  0  0  0  0  0  0  0  0  0
    2.9491   -0.5903    6.4232 H   0  0  0  0  0  0  0  0  0  0  0  0
    4.5008   -0.2231    3.8377 H   0  0  0  0  0  0  0  0  0  0  0  0
    3.4405    1.0029    4.5467 H   0  0  0  0  0  0  0  0  0  0  0  0
    3.8927    1.3628    2.1450 H   0  0  0  0  0  0  0  0  0  0  0  0
    1.1698    0.7906    2.6975 H   0  0  0  0  0  0  0  0  0  0  0  0
  1  2  1  0  0  0  0
  1 12  1  0  0  0  0
  1 13  1  0  0  0  0
  1 14  1  0  0  0  0
  2  3  1  0  0  0  0
  2  4  1  0  0  0  0
  2 15  1  0  0  0  0
  3 16  1  0  0  0  0
  3 17  1  0  0  0  0
  3 18  1  0  0  0  0
  4  5  1  0  0  0  0
  4 10  1  0  0  0  0
  4 19  1  6  0  0  0
  5  6  1  0  0  0  0
  5 20  1  0  0  0  0
  5 21  1  0  0  0  0
  6  7  1  0  0  0  0
  6 22  1  0  0  0  0
  6 23  1  0  0  0  0
  7  8  1  0  0  0  0
  7  9  1  0  0  0  0
  7 24  1  1  0  0  0
  8 25  1  0  0  0  0
  8 26  1  0  0  0  0
  8 27  1  0  0  0  0
  9 10  1  0  0  0  0
  9 28  1  0  0  0  0
  9 29  1  0  0  0  0
 10 11  1  0  0  0  0
 10 30  1  6  0  0  0
 11 31  1  0  0  0  0
M  END
$$$$
