
 OpenBabel07222214433D

 24 23  0  0  0  0  0  0  0  0999 V2000
    0.9113   -0.0764   -0.0445 C   0  0  0  0  0  0  0  0  0  0  0  0
    2.4294   -0.0825   -0.0831 C   0  0  0  0  0  0  0  0  0  0  0  0
    2.9791    0.1371    1.3048 C   0  0  0  0  0  0  0  0  0  0  0  0
    4.5125    0.1429    1.3410 C   0  0  0  0  0  0  0  0  0  0  0  0
    4.8997    0.3701    2.7771 C   0  0  0  0  0  0  0  0  0  0  0  0
    3.9932    0.5007    3.6019 O   0  0  0  0  0  0  0  0  0  0  0  0
    6.3515    0.4294    3.1513 C   0  0  0  0  0  0  0  0  0  0  0  0
    6.7003    0.6601    4.6093 C   0  0  0  0  0  0  0  0  0  0  0  0
    5.6684    0.8332    5.7027 C   0  0  0  0  0  0  0  0  0  0  0  0
    7.8975    0.7102    4.9257 O   0  0  0  0  0  0  0  0  0  0  0  0
    0.5121   -0.2353   -1.0484 H   0  0  0  0  0  0  0  0  0  0  0  0
    0.5324    0.8800    0.3326 H   0  0  0  0  0  0  0  0  0  0  0  0
    0.5324   -0.8696    0.6095 H   0  0  0  0  0  0  0  0  0  0  0  0
    2.7890    0.7105   -0.7459 H   0  0  0  0  0  0  0  0  0  0  0  0
    2.7890   -1.0414   -0.4687 H   0  0  0  0  0  0  0  0  0  0  0  0
    2.5970   -0.6470    1.9759 H   0  0  0  0  0  0  0  0  0  0  0  0
    2.5970    1.0902    1.7010 H   0  0  0  0  0  0  0  0  0  0  0  0
    4.9112    0.9528    0.7227 H   0  0  0  0  0  0  0  0  0  0  0  0
    4.9112   -0.8184    1.0031 H   0  0  0  0  0  0  0  0  0  0  0  0
    6.8194    1.2375    2.5740 H   0  0  0  0  0  0  0  0  0  0  0  0
    6.8194   -0.5175    2.8518 H   0  0  0  0  0  0  0  0  0  0  0  0
    4.6274    0.7893    5.4253 H   0  0  0  0  0  0  0  0  0  0  0  0
    5.7959    1.8184    6.1548 H   0  0  0  0  0  0  0  0  0  0  0  0
    5.7959    0.0357    6.4369 H   0  0  0  0  0  0  0  0  0  0  0  0
  1  2  1  0  0  0  0
  1 11  1  0  0  0  0
  1 12  1  0  0  0  0
  1 13  1  0  0  0  0
  2  3  1  0  0  0  0
  2 14  1  0  0  0  0
  2 15  1  0  0  0  0
  3  4  1  0  0  0  0
  3 16  1  0  0  0  0
  3 17  1  0  0  0  0
  4  5  1  0  0  0  0
  4 18  1  0  0  0  0
  4 19  1  0  0  0  0
  5  6  2  0  0  0  0
  5  7  1  0  0  0  0
  7  8  1  0  0  0  0
  7 20  1  0  0  0  0
  7 21  1  0  0  0  0
  8  9  1  0  0  0  0
  8 10  2  0  0  0  0
  9 22  1  0  0  0  0
  9 23  1  0  0  0  0
  9 24  1  0  0  0  0
M  END
$$$$
