
 OpenBabel07122215493D

 27 26  0  0  1  0  0  0  0  0999 V2000
    6.9443   -1.6745   -1.9832 C   0  0  0  0  0  0  0  0  0  0  0  0
    6.5334   -0.2952   -1.4904 C   0  0  0  0  0  0  0  0  0  0  0  0
    5.0106   -0.2214   -1.3401 C   0  0  0  0  0  0  0  0  0  0  0  0
    4.5135    1.1378   -0.8325 C   0  0  2  0  0  0  0  0  0  0  0  0
    2.9764    1.1853   -0.7651 C   0  0  0  0  0  0  0  0  0  0  0  0
    2.5136    2.0546    0.3875 C   0  0  0  0  0  0  0  0  0  0  0  0
    3.2538    2.6196    1.1839 O   0  0  0  0  0  0  0  0  0  0  0  0
    1.1475    2.1058    0.4544 O   0  0  0  0  0  0  0  0  0  0  0  0
    0.6698    2.9134    1.5466 C   0  0  0  0  0  0  0  0  0  0  0  0
   -0.8481    2.9249    1.5651 C   0  0  0  0  0  0  0  0  0  0  0  0
    4.9811    2.1730   -1.7004 O   0  0  0  0  0  0  0  0  0  0  0  0
    8.0295   -1.7343   -2.1062 H   0  0  0  0  0  0  0  0  0  0  0  0
    6.4782   -1.8939   -2.9495 H   0  0  0  0  0  0  0  0  0  0  0  0
    6.6364   -2.4486   -1.2728 H   0  0  0  0  0  0  0  0  0  0  0  0
    6.8866    0.4584   -2.2034 H   0  0  0  0  0  0  0  0  0  0  0  0
    7.0220   -0.0900   -0.5304 H   0  0  0  0  0  0  0  0  0  0  0  0
    4.6833   -1.0042   -0.6444 H   0  0  0  0  0  0  0  0  0  0  0  0
    4.5569   -0.4346   -2.3152 H   0  0  0  0  0  0  0  0  0  0  0  0
    4.9639    1.3143    0.1501 H   0  0  0  0  0  0  0  0  0  0  0  0
    2.5663    1.5862   -1.6997 H   0  0  0  0  0  0  0  0  0  0  0  0
    2.5729    0.1794   -0.5996 H   0  0  0  0  0  0  0  0  0  0  0  0
    1.0349    3.9404    1.4284 H   0  0  0  0  0  0  0  0  0  0  0  0
    1.0363    2.5046    2.4960 H   0  0  0  0  0  0  0  0  0  0  0  0
   -1.2461    3.3231    0.6268 H   0  0  0  0  0  0  0  0  0  0  0  0
   -1.2198    3.5420    2.3903 H   0  0  0  0  0  0  0  0  0  0  0  0
   -1.2447    1.9118    1.6835 H   0  0  0  0  0  0  0  0  0  0  0  0
    4.6939    1.9725   -2.6070 H   0  0  0  0  0  0  0  0  0  0  0  0
  1  2  1  0  0  0  0
  1 12  1  0  0  0  0
  1 13  1  0  0  0  0
  1 14  1  0  0  0  0
  2  3  1  0  0  0  0
  2 15  1  0  0  0  0
  2 16  1  0  0  0  0
  3 17  1  0  0  0  0
  3 18  1  0  0  0  0
  4 11  1  0  0  0  0
  4  5  1  0  0  0  0
  4  3  1  0  0  0  0
  4 19  1  1  0  0  0
  5  6  1  0  0  0  0
  5 20  1  0  0  0  0
  5 21  1  0  0  0  0
  6  7  2  0  0  0  0
  6  8  1  0  0  0  0
  8  9  1  0  0  0  0
  9 10  1  0  0  0  0
  9 22  1  0  0  0  0
  9 23  1  0  0  0  0
 10 24  1  0  0  0  0
 10 25  1  0  0  0  0
 10 26  1  0  0  0  0
 11 27  1  0  0  0  0
M  END
$$$$
