
 OpenBabel07202215583D

 17 17  0  0  0  0  0  0  0  0999 V2000
    1.1067    0.1073   -0.0691 C   0  0  0  0  0  0  0  0  0  0  0  0
    2.9256    0.0534   -0.0245 S   0  0  0  0  0  0  0  0  0  0  0  0
    3.4212    1.4536   -1.4426 S   0  0  0  0  0  0  0  0  0  0  0  0
    5.2663    1.4980   -1.4355 C   0  0  0  0  0  0  0  0  0  0  0  0
    5.6951    2.6442   -2.2878 C   0  0  0  0  0  0  0  0  0  0  0  0
    6.3146    2.3777   -3.4771 O   0  0  0  0  0  0  0  0  0  0  0  0
    6.4902    3.5729   -4.1055 C   0  0  0  0  0  0  0  0  0  0  0  0
    6.0041    4.6032   -3.3291 C   0  0  0  0  0  0  0  0  0  0  0  0
    5.5319    4.0056   -2.1410 C   0  0  0  0  0  0  0  0  0  0  0  0
    0.7107   -0.6400    0.6251 H   0  0  0  0  0  0  0  0  0  0  0  0
    0.7300   -0.1291   -1.0689 H   0  0  0  0  0  0  0  0  0  0  0  0
    0.7336    1.0878    0.2424 H   0  0  0  0  0  0  0  0  0  0  0  0
    5.6668    0.5476   -1.8027 H   0  0  0  0  0  0  0  0  0  0  0  0
    5.6298    1.6641   -0.4151 H   0  0  0  0  0  0  0  0  0  0  0  0
    6.9445    3.5335   -5.0846 H   0  0  0  0  0  0  0  0  0  0  0  0
    5.9789    5.6490   -3.5927 H   0  0  0  0  0  0  0  0  0  0  0  0
    5.0609    4.4885   -1.2955 H   0  0  0  0  0  0  0  0  0  0  0  0
  1  2  1  0  0  0  0
  1 10  1  0  0  0  0
  1 11  1  0  0  0  0
  1 12  1  0  0  0  0
  2  3  1  0  0  0  0
  3  4  1  0  0  0  0
  4  5  1  0  0  0  0
  4 13  1  0  0  0  0
  4 14  1  0  0  0  0
  5  6  1  0  0  0  0
  5  9  2  0  0  0  0
  6  7  1  0  0  0  0
  7  8  2  0  0  0  0
  7 15  1  0  0  0  0
  8  9  1  0  0  0  0
  8 16  1  0  0  0  0
  9 17  1  0  0  0  0
M  END
$$$$
