
 OpenBabel07202215583D

 46 49  0  0  1  0  0  0  0  0999 V2000
    0.9168    0.0482   -0.1031 C   0  0  0  0  0  0  0  0  0  0  0  0
    2.4341    0.1662    0.0530 C   0  0  2  0  0  0  0  0  0  0  0  0
    2.9023   -0.3383    1.4258 C   0  0  0  0  0  0  0  0  0  0  0  0
    2.4347   -1.6856    1.8038 C   0  0  0  0  0  0  0  0  0  0  0  0
    3.0146   -2.7161    0.8548 C   0  0  1  0  0  0  0  0  0  0  0  0
    2.9292   -2.1641   -0.6757 C   0  0  1  0  0  0  0  0  0  0  0  0
    3.2419   -3.3418   -1.6355 C   0  0  0  0  0  0  0  0  0  0  0  0
    2.8437   -4.7403   -1.0768 C   0  0  0  0  0  0  0  0  0  0  0  0
    3.5001   -4.9937    0.3014 C   0  0  0  0  0  0  0  0  0  0  0  0
    4.3382   -6.0054    0.6148 C   0  0  0  0  0  0  0  0  0  0  0  0
    4.0884   -6.4523    2.0116 C   0  0  0  0  0  0  0  0  0  0  0  0
    4.6980   -6.1422    3.0642 O   0  0  0  0  0  0  0  0  0  0  0  0
    2.7792   -7.0919    2.0558 C   0  0  0  0  0  0  0  0  0  0  0  0
    1.8048   -5.6597    1.6561 C   0  0  0  0  0  0  0  0  0  0  0  0
    2.7601   -4.2823    1.4142 C   0  0  2  0  0  0  0  0  0  0  0  0
    3.1076   -4.0899    2.9392 C   0  0  0  0  0  0  0  0  0  0  0  0
    3.3021   -0.4334   -1.1367 C   0  0  2  0  0  0  0  0  0  0  0  0
    4.2414    1.0932   -1.3506 C   0  0  0  0  0  0  0  0  0  0  0  0
    4.2295    1.6176    0.0255 C   0  0  0  0  0  0  0  0  0  0  0  0
    2.8969    1.5863    0.2350 C   0  0  0  0  0  0  0  0  0  0  0  0
    0.5153   -0.9339    0.1706 H   0  0  0  0  0  0  0  0  0  0  0  0
    0.5934    0.2427   -1.1287 H   0  0  0  0  0  0  0  0  0  0  0  0
    0.4294    0.7572    0.5704 H   0  0  0  0  0  0  0  0  0  0  0  0
    2.5996    0.3555    2.2201 H   0  0  0  0  0  0  0  0  0  0  0  0
    4.0023   -0.4003    1.4963 H   0  0  0  0  0  0  0  0  0  0  0  0
    1.3537   -1.7729    1.8989 H   0  0  0  0  0  0  0  0  0  0  0  0
    2.8684   -1.7354    2.8017 H   0  0  0  0  0  0  0  0  0  0  0  0
    4.1144   -2.6406    0.9740 H   0  0  0  0  0  0  0  0  0  0  0  0
    1.8354   -2.1250   -0.8163 H   0  0  0  0  0  0  0  0  0  0  0  0
    4.3092   -3.3779   -1.8248 H   0  0  0  0  0  0  0  0  0  0  0  0
    2.7013   -3.2022   -2.5834 H   0  0  0  0  0  0  0  0  0  0  0  0
    3.1029   -5.5337   -1.7914 H   0  0  0  0  0  0  0  0  0  0  0  0
    1.7362   -4.8172   -1.0156 H   0  0  0  0  0  0  0  0  0  0  0  0
    4.4326   -6.8066   -0.1143 H   0  0  0  0  0  0  0  0  0  0  0  0
    2.7657   -7.5941    3.0447 H   0  0  0  0  0  0  0  0  0  0  0  0
    2.9902   -7.8979    1.3067 H   0  0  0  0  0  0  0  0  0  0  0  0
    1.1151   -5.4733    2.4875 H   0  0  0  0  0  0  0  0  0  0  0  0
    1.1546   -5.8813    0.8035 H   0  0  0  0  0  0  0  0  0  0  0  0
    2.5605   -3.2935    3.4388 H   0  0  0  0  0  0  0  0  0  0  0  0
    4.1744   -3.9401    3.0911 H   0  0  0  0  0  0  0  0  0  0  0  0
    2.7063   -4.8774    3.5822 H   0  0  0  0  0  0  0  0  0  0  0  0
    3.0655   -0.5216   -2.2086 H   0  0  0  0  0  0  0  0  0  0  0  0
    3.6956    1.9672   -1.8513 H   0  0  0  0  0  0  0  0  0  0  0  0
    5.2634    1.2379   -1.7342 H   0  0  0  0  0  0  0  0  0  0  0  0
    4.9742    0.9501    0.4844 H   0  0  0  0  0  0  0  0  0  0  0  0
    2.2522    2.2443   -0.3549 H   0  0  0  0  0  0  0  0  0  0  0  0
  1 21  1  0  0  0  0
  1 22  1  0  0  0  0
  1 23  1  0  0  0  0
  2  3  1  0  0  0  0
  2 17  1  0  0  0  0
  2 20  1  0  0  0  0
  2  1  1  1  0  0  0
  3  4  1  0  0  0  0
  3 24  1  0  0  0  0
  3 25  1  0  0  0  0
  4  5  1  0  0  0  0
  4 26  1  0  0  0  0
  4 27  1  0  0  0  0
  5  6  1  0  0  0  0
  5 15  1  0  0  0  0
  5 28  1  6  0  0  0
  6  7  1  0  0  0  0
  6 17  1  0  0  0  0
  6 29  1  1  0  0  0
  7  8  1  0  0  0  0
  7 30  1  0  0  0  0
  7 31  1  0  0  0  0
  8  9  1  0  0  0  0
  8 32  1  0  0  0  0
  8 33  1  0  0  0  0
  9 10  2  0  0  0  0
  9 15  1  0  0  0  0
 10 11  1  0  0  0  0
 10 34  1  0  0  0  0
 11 13  1  0  0  0  0
 11 12  2  0  0  0  0
 13 14  1  0  0  0  0
 13 35  1  0  0  0  0
 13 36  1  0  0  0  0
 14 15  1  0  0  0  0
 14 37  1  0  0  0  0
 14 38  1  0  0  0  0
 15 16  1  1  0  0  0
 16 39  1  0  0  0  0
 16 40  1  0  0  0  0
 16 41  1  0  0  0  0
 17 18  1  0  0  0  0
 17 42  1  6  0  0  0
 18 19  1  0  0  0  0
 18 43  1  0  0  0  0
 18 44  1  0  0  0  0
 19 20  2  0  0  0  0
 19 45  1  0  0  0  0
 20 46  1  0  0  0  0
M  END
$$$$
