
 OpenBabel07222214433D

 30 29  0  0  0  0  0  0  0  0999 V2000
    0.9836    0.0863   -0.0279 C   0  0  0  0  0  0  0  0  0  0  0  0
    2.5108    0.0499   -0.0392 C   0  0  0  0  0  0  0  0  0  0  0  0
    2.9928   -1.3979   -0.1545 C   0  0  0  0  0  0  0  0  0  0  0  0
    3.0417    0.9251   -1.1847 C   0  0  0  0  0  0  0  0  0  0  0  0
    4.5659    0.9723   -1.2123 C   0  0  0  0  0  0  0  0  0  0  0  0
    5.0735    1.8298   -2.3609 C   0  0  0  0  0  0  0  0  0  0  0  0
    6.5973    1.8224   -2.3700 C   0  0  0  0  0  0  0  0  0  0  0  0
    7.1332    2.6615   -3.5185 C   0  0  0  0  0  0  0  0  0  0  0  0
    8.6526    2.6596   -3.5248 C   0  0  0  0  0  0  0  0  0  0  0  0
    9.1254    3.4570   -4.6011 O   0  0  0  0  0  0  0  0  0  0  0  0
    0.5885   -0.5102    0.8005 H   0  0  0  0  0  0  0  0  0  0  0  0
    0.5734   -0.3139   -0.9615 H   0  0  0  0  0  0  0  0  0  0  0  0
    0.6179    1.1116    0.0911 H   0  0  0  0  0  0  0  0  0  0  0  0
    2.8713    0.4610    0.9125 H   0  0  0  0  0  0  0  0  0  0  0  0
    2.6870   -1.8373   -1.1101 H   0  0  0  0  0  0  0  0  0  0  0  0
    2.5831   -2.0106    0.6538 H   0  0  0  0  0  0  0  0  0  0  0  0
    4.0820   -1.4703   -0.0820 H   0  0  0  0  0  0  0  0  0  0  0  0
    2.6544    1.9465   -1.0734 H   0  0  0  0  0  0  0  0  0  0  0  0
    2.6678    0.5499   -2.1458 H   0  0  0  0  0  0  0  0  0  0  0  0
    4.9774   -0.0341   -1.3381 H   0  0  0  0  0  0  0  0  0  0  0  0
    4.9411    1.3612   -0.2578 H   0  0  0  0  0  0  0  0  0  0  0  0
    4.6996    2.8552   -2.2600 H   0  0  0  0  0  0  0  0  0  0  0  0
    4.6954    1.4340   -3.3116 H   0  0  0  0  0  0  0  0  0  0  0  0
    6.9616    0.7913   -2.4639 H   0  0  0  0  0  0  0  0  0  0  0  0
    6.9739    2.2099   -1.4153 H   0  0  0  0  0  0  0  0  0  0  0  0
    6.7649    3.6918   -3.4406 H   0  0  0  0  0  0  0  0  0  0  0  0
    6.7571    2.2775   -4.4748 H   0  0  0  0  0  0  0  0  0  0  0  0
    9.0467    1.6449   -3.6423 H   0  0  0  0  0  0  0  0  0  0  0  0
    9.0445    3.0743   -2.5915 H   0  0  0  0  0  0  0  0  0  0  0  0
    8.7697    3.0790   -5.4197 H   0  0  0  0  0  0  0  0  0  0  0  0
  1  2  1  0  0  0  0
  1 11  1  0  0  0  0
  1 12  1  0  0  0  0
  1 13  1  0  0  0  0
  2  3  1  0  0  0  0
  2  4  1  0  0  0  0
  2 14  1  0  0  0  0
  3 15  1  0  0  0  0
  3 16  1  0  0  0  0
  3 17  1  0  0  0  0
  4  5  1  0  0  0  0
  4 18  1  0  0  0  0
  4 19  1  0  0  0  0
  5  6  1  0  0  0  0
  5 20  1  0  0  0  0
  5 21  1  0  0  0  0
  6  7  1  0  0  0  0
  6 22  1  0  0  0  0
  6 23  1  0  0  0  0
  7  8  1  0  0  0  0
  7 24  1  0  0  0  0
  7 25  1  0  0  0  0
  8  9  1  0  0  0  0
  8 26  1  0  0  0  0
  8 27  1  0  0  0  0
  9 10  1  0  0  0  0
  9 28  1  0  0  0  0
  9 29  1  0  0  0  0
 10 30  1  0  0  0  0
M  END
$$$$
