
 OpenBabel07222214443D

 14 13  0  0  0  0  0  0  0  0999 V2000
    1.0499   -0.0553    0.0497 C   0  0  0  0  0  0  0  0  0  0  0  0
    2.5697   -0.0524    0.0317 C   0  0  0  0  0  0  0  0  0  0  0  0
    3.0394    0.1634   -1.3110 O   0  0  0  0  0  0  0  0  0  0  0  0
    4.3974    0.1823   -1.4287 C   0  0  0  0  0  0  0  0  0  0  0  0
    5.1848    0.0332   -0.5009 O   0  0  0  0  0  0  0  0  0  0  0  0
    4.8381    0.4103   -2.8472 C   0  0  0  0  0  0  0  0  0  0  0  0
    0.6736   -0.2185    1.0652 H   0  0  0  0  0  0  0  0  0  0  0  0
    0.6526   -0.8433   -0.5981 H   0  0  0  0  0  0  0  0  0  0  0  0
    0.6526    0.8960   -0.3186 H   0  0  0  0  0  0  0  0  0  0  0  0
    2.9359   -1.0179    0.3992 H   0  0  0  0  0  0  0  0  0  0  0  0
    2.9359    0.7492    0.6832 H   0  0  0  0  0  0  0  0  0  0  0  0
    3.9859    0.5190   -3.5233 H   0  0  0  0  0  0  0  0  0  0  0  0
    5.4371   -0.4417   -3.1817 H   0  0  0  0  0  0  0  0  0  0  0  0
    5.4371    1.3243   -2.8978 H   0  0  0  0  0  0  0  0  0  0  0  0
  1  2  1  0  0  0  0
  1  7  1  0  0  0  0
  1  8  1  0  0  0  0
  1  9  1  0  0  0  0
  2  3  1  0  0  0  0
  2 10  1  0  0  0  0
  2 11  1  0  0  0  0
  3  4  1  0  0  0  0
  4  5  2  0  0  0  0
  4  6  1  0  0  0  0
  6 12  1  0  0  0  0
  6 13  1  0  0  0  0
  6 14  1  0  0  0  0
M  END
$$$$
