
 OpenBabel07202215583D

 20 19  0  0  0  0  0  0  0  0999 V2000
    1.0708   -0.0166    0.0662 C   0  0  0  0  0  0  0  0  0  0  0  0
    2.5996   -0.0372    0.0514 C   0  0  0  0  0  0  0  0  0  0  0  0
    3.0912   -1.4455   -0.2808 C   0  0  0  0  0  0  0  0  0  0  0  0
    3.1074    0.9916   -0.9670 C   0  0  0  0  0  0  0  0  0  0  0  0
    4.6285    1.0765   -1.0332 C   0  0  0  0  0  0  0  0  0  0  0  0
    5.1940    2.0620   -2.0274 C   0  0  0  0  0  0  0  0  0  0  0  0
    4.3172    2.7706   -2.7619 O   0  0  0  0  0  0  0  0  0  0  0  0
    6.4035    2.2033   -2.1747 O   0  0  0  0  0  0  0  0  0  0  0  0
    0.6793   -0.7283    0.7993 H   0  0  0  0  0  0  0  0  0  0  0  0
    0.6669   -0.2836   -0.9170 H   0  0  0  0  0  0  0  0  0  0  0  0
    0.6950    0.9789    0.3252 H   0  0  0  0  0  0  0  0  0  0  0  0
    2.9615    0.2393    1.0499 H   0  0  0  0  0  0  0  0  0  0  0  0
    2.7654   -1.7431   -1.2835 H   0  0  0  0  0  0  0  0  0  0  0  0
    2.7055   -2.1733    0.4384 H   0  0  0  0  0  0  0  0  0  0  0  0
    4.1824   -1.5112   -0.2464 H   0  0  0  0  0  0  0  0  0  0  0  0
    2.7048    1.9789   -0.7049 H   0  0  0  0  0  0  0  0  0  0  0  0
    2.7133    0.7370   -1.9593 H   0  0  0  0  0  0  0  0  0  0  0  0
    5.0433    0.1036   -1.3165 H   0  0  0  0  0  0  0  0  0  0  0  0
    5.0166    1.3386   -0.0416 H   0  0  0  0  0  0  0  0  0  0  0  0
    3.3702    2.6092   -2.6067 H   0  0  0  0  0  0  0  0  0  0  0  0
  1  2  1  0  0  0  0
  1  9  1  0  0  0  0
  1 10  1  0  0  0  0
  1 11  1  0  0  0  0
  2  3  1  0  0  0  0
  2  4  1  0  0  0  0
  2 12  1  0  0  0  0
  3 13  1  0  0  0  0
  3 14  1  0  0  0  0
  3 15  1  0  0  0  0
  4  5  1  0  0  0  0
  4 16  1  0  0  0  0
  4 17  1  0  0  0  0
  5  6  1  0  0  0  0
  5 18  1  0  0  0  0
  5 19  1  0  0  0  0
  6  7  1  0  0  0  0
  6  8  2  0  0  0  0
  7 20  1  0  0  0  0
M  END
$$$$
