
 OpenBabel07202215583D

 35 35  0  0  0  0  0  0  0  0999 V2000
    0.9502    0.0527    0.1006 C   0  0  0  0  0  0  0  0  0  0  0  0
    2.4871    0.0811    0.0498 C   0  0  0  0  0  0  0  0  0  0  0  0
    3.0320    1.4368   -0.4337 C   0  0  0  0  0  0  0  0  0  0  0  0
    2.5749    1.7932   -1.8263 C   0  0  0  0  0  0  0  0  0  0  0  0
    2.5954    3.1186   -2.2601 C   0  0  0  0  0  0  0  0  0  0  0  0
    2.0287    3.4538   -3.4905 C   0  0  0  0  0  0  0  0  0  0  0  0
    1.4962    2.4657   -4.3404 C   0  0  0  0  0  0  0  0  0  0  0  0
    1.4872    1.1483   -3.8902 C   0  0  0  0  0  0  0  0  0  0  0  0
    2.0648    0.8157   -2.6850 C   0  0  0  0  0  0  0  0  0  0  0  0
    1.0387    2.8008   -5.7563 C   0  0  0  0  0  0  0  0  0  0  0  0
   -0.1124    3.8145   -5.7132 C   0  0  0  0  0  0  0  0  0  0  0  0
    2.2395    3.3927   -6.5192 C   0  0  0  0  0  0  0  0  0  0  0  0
    0.5616    1.5497   -6.5296 C   0  0  0  0  0  0  0  0  0  0  0  0
    3.0442   -0.2415    1.4084 C   0  0  0  0  0  0  0  0  0  0  0  0
    4.2545   -0.2992    1.6424 O   0  0  0  0  0  0  0  0  0  0  0  0
    0.4742    0.2722   -0.8600 H   0  0  0  0  0  0  0  0  0  0  0  0
    0.5661    0.7892    0.8116 H   0  0  0  0  0  0  0  0  0  0  0  0
    0.5936   -0.9390    0.3934 H   0  0  0  0  0  0  0  0  0  0  0  0
    2.8424   -0.7284   -0.6013 H   0  0  0  0  0  0  0  0  0  0  0  0
    4.1290    1.4502   -0.4128 H   0  0  0  0  0  0  0  0  0  0  0  0
    2.6910    2.2182    0.2601 H   0  0  0  0  0  0  0  0  0  0  0  0
    3.0443    3.8987   -1.6494 H   0  0  0  0  0  0  0  0  0  0  0  0
    2.0170    4.5005   -3.7858 H   0  0  0  0  0  0  0  0  0  0  0  0
    1.0462    0.3322   -4.4527 H   0  0  0  0  0  0  0  0  0  0  0  0
    2.0402   -0.2370   -2.4249 H   0  0  0  0  0  0  0  0  0  0  0  0
    0.1826    4.7501   -5.2258 H   0  0  0  0  0  0  0  0  0  0  0  0
   -0.9702    3.4131   -5.1609 H   0  0  0  0  0  0  0  0  0  0  0  0
   -0.4464    4.0649   -6.7254 H   0  0  0  0  0  0  0  0  0  0  0  0
    2.6099    4.3133   -6.0541 H   0  0  0  0  0  0  0  0  0  0  0  0
    1.9694    3.6340   -7.5515 H   0  0  0  0  0  0  0  0  0  0  0  0
    3.0775    2.6842   -6.5444 H   0  0  0  0  0  0  0  0  0  0  0  0
   -0.3006    1.0820   -6.0367 H   0  0  0  0  0  0  0  0  0  0  0  0
    1.3587    0.7965   -6.5966 H   0  0  0  0  0  0  0  0  0  0  0  0
    0.2625    1.7929   -7.5520 H   0  0  0  0  0  0  0  0  0  0  0  0
    2.3121   -0.4606    2.1991 H   0  0  0  0  0  0  0  0  0  0  0  0
  1  2  1  0  0  0  0
  1 16  1  0  0  0  0
  1 17  1  0  0  0  0
  1 18  1  0  0  0  0
  2  3  1  0  0  0  0
  2 14  1  0  0  0  0
  2 19  1  0  0  0  0
  3  4  1  0  0  0  0
  3 20  1  0  0  0  0
  3 21  1  0  0  0  0
  4  5  1  0  0  0  0
  4  9  2  0  0  0  0
  5  6  2  0  0  0  0
  5 22  1  0  0  0  0
  6  7  1  0  0  0  0
  6 23  1  0  0  0  0
  7  8  2  0  0  0  0
  7 10  1  0  0  0  0
  8  9  1  0  0  0  0
  8 24  1  0  0  0  0
  9 25  1  0  0  0  0
 10 11  1  0  0  0  0
 10 12  1  0  0  0  0
 10 13  1  0  0  0  0
 11 26  1  0  0  0  0
 11 27  1  0  0  0  0
 11 28  1  0  0  0  0
 12 29  1  0  0  0  0
 12 30  1  0  0  0  0
 12 31  1  0  0  0  0
 13 32  1  0  0  0  0
 13 33  1  0  0  0  0
 13 34  1  0  0  0  0
 14 15  2  0  0  0  0
 14 35  1  0  0  0  0
M  END
$$$$
