
 OpenBabel07122215493D

 26 27  0  0  0  0  0  0  0  0999 V2000
    0.8888    0.0001    0.0916 C   0  0  0  0  0  0  0  0  0  0  0  0
    2.4150    0.0139    0.0525 C   0  0  0  0  0  0  0  0  0  0  0  0
    2.9319    0.5494   -1.2920 C   0  0  0  0  0  0  0  0  0  0  0  0
    2.5192   -0.3174   -2.4620 C   0  0  0  0  0  0  0  0  0  0  0  0
    1.8557    0.2225   -3.5764 C   0  0  0  0  0  0  0  0  0  0  0  0
    1.5361   -0.6338   -4.6127 C   0  0  0  0  0  0  0  0  0  0  0  0
    1.8359   -1.9759   -4.5655 C   0  0  0  0  0  0  0  0  0  0  0  0
    2.4697   -2.5414   -3.4852 C   0  0  0  0  0  0  0  0  0  0  0  0
    2.8200   -1.6994   -2.4324 C   0  0  0  0  0  0  0  0  0  0  0  0
    1.4483   -2.6406   -5.6855 O   0  0  0  0  0  0  0  0  0  0  0  0
    0.8054   -1.5783   -6.4161 C   0  0  0  0  0  0  0  0  0  0  0  0
    0.9193   -0.2886   -5.7761 O   0  0  0  0  0  0  0  0  0  0  0  0
    2.9678    0.8529    1.1811 C   0  0  0  0  0  0  0  0  0  0  0  0
    4.1732    1.0003    1.3799 O   0  0  0  0  0  0  0  0  0  0  0  0
    0.4752   -0.6312   -0.7020 H   0  0  0  0  0  0  0  0  0  0  0  0
    0.4850    1.0100   -0.0333 H   0  0  0  0  0  0  0  0  0  0  0  0
    0.5258   -0.3950    1.0453 H   0  0  0  0  0  0  0  0  0  0  0  0
    2.7710   -1.0061    0.2412 H   0  0  0  0  0  0  0  0  0  0  0  0
    4.0288    0.5992   -1.2876 H   0  0  0  0  0  0  0  0  0  0  0  0
    2.5852    1.5817   -1.4352 H   0  0  0  0  0  0  0  0  0  0  0  0
    1.5961    1.2746   -3.6374 H   0  0  0  0  0  0  0  0  0  0  0  0
    2.6993   -3.5992   -3.4531 H   0  0  0  0  0  0  0  0  0  0  0  0
    3.3342   -2.1285   -1.5754 H   0  0  0  0  0  0  0  0  0  0  0  0
   -0.2582   -1.8244   -6.5138 H   0  0  0  0  0  0  0  0  0  0  0  0
    1.2462   -1.5230   -7.4182 H   0  0  0  0  0  0  0  0  0  0  0  0
    2.2324    1.3279    1.8502 H   0  0  0  0  0  0  0  0  0  0  0  0
  1  2  1  0  0  0  0
  1 15  1  0  0  0  0
  1 16  1  0  0  0  0
  1 17  1  0  0  0  0
  2  3  1  0  0  0  0
  2 13  1  0  0  0  0
  2 18  1  0  0  0  0
  3  4  1  0  0  0  0
  3 19  1  0  0  0  0
  3 20  1  0  0  0  0
  4  5  2  0  0  0  0
  4  9  1  0  0  0  0
  5  6  1  0  0  0  0
  5 21  1  0  0  0  0
  6  7  2  0  0  0  0
  6 12  1  0  0  0  0
  7  8  1  0  0  0  0
  7 10  1  0  0  0  0
  8  9  2  0  0  0  0
  8 22  1  0  0  0  0
  9 23  1  0  0  0  0
 10 11  1  0  0  0  0
 11 12  1  0  0  0  0
 11 24  1  0  0  0  0
 11 25  1  0  0  0  0
 13 14  2  0  0  0  0
 13 26  1  0  0  0  0
M  END
$$$$
