
 OpenBabel07222214443D

 16 16  0  0  0  0  0  0  0  0999 V2000
    2.5227    1.1891    0.0003 C   0  0  0  0  0  0  0  0  0  0  0  0
    1.2620    0.3760    0.0039 C   0  0  0  0  0  0  0  0  0  0  0  0
    0.0153    1.0141   -0.0063 C   0  0  0  0  0  0  0  0  0  0  0  0
   -1.1526    0.2558   -0.0113 C   0  0  0  0  0  0  0  0  0  0  0  0
   -1.1028   -1.1310   -0.0146 C   0  0  0  0  0  0  0  0  0  0  0  0
    0.1337   -1.7753    0.0016 C   0  0  0  0  0  0  0  0  0  0  0  0
    1.3133   -1.0244    0.0156 C   0  0  0  0  0  0  0  0  0  0  0  0
   -2.3777    0.8555   -0.0118 O   0  0  0  0  0  0  0  0  0  0  0  0
    2.2997    2.2615   -0.0270 H   0  0  0  0  0  0  0  0  0  0  0  0
    3.1245    0.9542   -0.8831 H   0  0  0  0  0  0  0  0  0  0  0  0
    3.1064    0.9933    0.9048 H   0  0  0  0  0  0  0  0  0  0  0  0
   -0.0324    2.0980   -0.0122 H   0  0  0  0  0  0  0  0  0  0  0  0
   -2.0231   -1.7084   -0.0273 H   0  0  0  0  0  0  0  0  0  0  0  0
    0.1774   -2.8609    0.0034 H   0  0  0  0  0  0  0  0  0  0  0  0
    2.2707   -1.5412    0.0332 H   0  0  0  0  0  0  0  0  0  0  0  0
   -2.2454    1.8167    0.0210 H   0  0  0  0  0  0  0  0  0  0  0  0
  1  2  1  0  0  0  0
  1  9  1  0  0  0  0
  1 10  1  0  0  0  0
  1 11  1  0  0  0  0
  2  3  2  0  0  0  0
  2  7  1  0  0  0  0
  3  4  1  0  0  0  0
  3 12  1  0  0  0  0
  4  5  2  0  0  0  0
  4  8  1  0  0  0  0
  5  6  1  0  0  0  0
  5 13  1  0  0  0  0
  6  7  2  0  0  0  0
  6 14  1  0  0  0  0
  7 15  1  0  0  0  0
  8 16  1  0  0  0  0
M  END
$$$$
