
 OpenBabel07202215583D

 29 28  0  0  0  0  0  0  0  0999 V2000
    1.0397    0.0478   -0.0832 C   0  0  0  0  0  0  0  0  0  0  0  0
    2.5566    0.0410   -0.0768 C   0  0  0  0  0  0  0  0  0  0  0  0
    3.0840   -0.9985    0.9050 C   0  0  0  0  0  0  0  0  0  0  0  0
    4.6072   -1.0070    0.9130 C   0  0  0  0  0  0  0  0  0  0  0  0
    5.1339   -2.0475    1.8958 C   0  0  0  0  0  0  0  0  0  0  0  0
    6.6320   -2.0622    1.9097 C   0  0  0  0  0  0  0  0  0  0  0  0
    7.3308   -2.8933    2.6947 C   0  0  0  0  0  0  0  0  0  0  0  0
    8.8291   -2.9141    2.7143 C   0  0  0  0  0  0  0  0  0  0  0  0
    9.3498   -3.9546    3.6972 C   0  0  0  0  0  0  0  0  0  0  0  0
   10.8525   -3.9751    3.7165 C   0  0  0  0  0  0  0  0  0  0  0  0
   11.4943   -4.7369    4.4361 O   0  0  0  0  0  0  0  0  0  0  0  0
    0.6662    0.7948   -0.7889 H   0  0  0  0  0  0  0  0  0  0  0  0
    0.6493    0.2870    0.9111 H   0  0  0  0  0  0  0  0  0  0  0  0
    0.6493   -0.9313   -0.3788 H   0  0  0  0  0  0  0  0  0  0  0  0
    2.9264    1.0358    0.1979 H   0  0  0  0  0  0  0  0  0  0  0  0
    2.9264   -0.1766   -1.0857 H   0  0  0  0  0  0  0  0  0  0  0  0
    2.7103   -1.9925    0.6297 H   0  0  0  0  0  0  0  0  0  0  0  0
    2.7103   -0.7803    1.9131 H   0  0  0  0  0  0  0  0  0  0  0  0
    4.9800   -0.0118    1.1874 H   0  0  0  0  0  0  0  0  0  0  0  0
    4.9800   -1.2242   -0.0962 H   0  0  0  0  0  0  0  0  0  0  0  0
    4.7603   -3.0390    1.6120 H   0  0  0  0  0  0  0  0  0  0  0  0
    4.7603   -1.8206    2.9019 H   0  0  0  0  0  0  0  0  0  0  0  0
    7.1582   -1.3697    1.2556 H   0  0  0  0  0  0  0  0  0  0  0  0
    6.7935   -3.5819    3.3451 H   0  0  0  0  0  0  0  0  0  0  0  0
    9.2053   -1.9216    2.9932 H   0  0  0  0  0  0  0  0  0  0  0  0
    9.2053   -3.1359    1.7076 H   0  0  0  0  0  0  0  0  0  0  0  0
    8.9997   -4.9533    3.4136 H   0  0  0  0  0  0  0  0  0  0  0  0
    8.9997   -3.7284    4.7104 H   0  0  0  0  0  0  0  0  0  0  0  0
   11.3706   -3.2674    3.0481 H   0  0  0  0  0  0  0  0  0  0  0  0
  1  2  1  0  0  0  0
  1 12  1  0  0  0  0
  1 13  1  0  0  0  0
  1 14  1  0  0  0  0
  2  3  1  0  0  0  0
  2 15  1  0  0  0  0
  2 16  1  0  0  0  0
  3  4  1  0  0  0  0
  3 17  1  0  0  0  0
  3 18  1  0  0  0  0
  4  5  1  0  0  0  0
  4 19  1  0  0  0  0
  4 20  1  0  0  0  0
  5  6  1  0  0  0  0
  5 21  1  0  0  0  0
  5 22  1  0  0  0  0
  6  7  2  0  0  0  0
  6 23  1  0  0  0  0
  7  8  1  0  0  0  0
  7 24  1  0  0  0  0
  8  9  1  0  0  0  0
  8 25  1  0  0  0  0
  8 26  1  0  0  0  0
  9 10  1  0  0  0  0
  9 27  1  0  0  0  0
  9 28  1  0  0  0  0
 10 11  2  0  0  0  0
 10 29  1  0  0  0  0
M  END
$$$$
