
 OpenBabel07222214433D

 17 17  0  0  0  0  0  0  0  0999 V2000
    0.9438    0.0676    0.0408 O   0  0  0  0  0  0  0  0  0  0  0  0
    2.1755    0.0581    0.0606 C   0  0  0  0  0  0  0  0  0  0  0  0
    2.9646   -0.0888    1.3300 C   0  0  0  0  0  0  0  0  0  0  0  0
    4.4530   -0.0465    1.1044 C   0  0  0  0  0  0  0  0  0  0  0  0
    5.1969   -1.2293    1.0031 C   0  0  0  0  0  0  0  0  0  0  0  0
    6.5883   -1.1762    0.9155 C   0  0  0  0  0  0  0  0  0  0  0  0
    7.2376    0.0549    0.8396 C   0  0  0  0  0  0  0  0  0  0  0  0
    6.5000    1.2361    0.8829 C   0  0  0  0  0  0  0  0  0  0  0  0
    5.1136    1.1869    1.0205 C   0  0  0  0  0  0  0  0  0  0  0  0
    2.7493    0.1637   -0.8743 H   0  0  0  0  0  0  0  0  0  0  0  0
    2.6845   -1.0321    1.8120 H   0  0  0  0  0  0  0  0  0  0  0  0
    2.6830    0.7234    2.0105 H   0  0  0  0  0  0  0  0  0  0  0  0
    4.7037   -2.1993    1.0154 H   0  0  0  0  0  0  0  0  0  0  0  0
    7.1687   -2.0955    0.9230 H   0  0  0  0  0  0  0  0  0  0  0  0
    8.3198    0.0935    0.7477 H   0  0  0  0  0  0  0  0  0  0  0  0
    7.0062    2.1967    0.8332 H   0  0  0  0  0  0  0  0  0  0  0  0
    4.5530    2.1177    1.0796 H   0  0  0  0  0  0  0  0  0  0  0  0
  1  2  2  0  0  0  0
  2  3  1  0  0  0  0
  2 10  1  0  0  0  0
  3  4  1  0  0  0  0
  3 11  1  0  0  0  0
  3 12  1  0  0  0  0
  4  5  1  0  0  0  0
  4  9  2  0  0  0  0
  5  6  2  0  0  0  0
  5 13  1  0  0  0  0
  6  7  1  0  0  0  0
  6 14  1  0  0  0  0
  7  8  2  0  0  0  0
  7 15  1  0  0  0  0
  8  9  1  0  0  0  0
  8 16  1  0  0  0  0
  9 17  1  0  0  0  0
M  END
$$$$
