
 OpenBabel07202215583D

 47 49  0  0  1  0  0  0  0  0999 V2000
    2.8793   -0.6522   -1.4836 C   0  0  0  0  0  0  0  0  0  0  0  0
    2.4320    0.1627   -0.2881 C   0  0  2  0  0  0  0  0  0  0  0  0
    3.0094    1.5553   -0.3515 C   0  0  0  0  0  0  0  0  0  0  0  0
    3.8703    1.7376    0.8922 C   0  0  0  0  0  0  0  0  0  0  0  0
    3.3737    0.6984    1.9067 C   0  0  2  0  0  0  0  0  0  0  0  0
    2.9593   -0.3776    1.0007 C   0  0  2  0  0  0  0  0  0  0  0  0
    4.3945   -1.4178    0.7113 C   0  0  0  0  0  0  0  0  0  0  0  0
    4.0105   -2.8124    0.3665 C   0  0  0  0  0  0  0  0  0  0  0  0
    3.1275   -3.2240    1.5243 C   0  0  1  0  0  0  0  0  0  0  0  0
    2.7278   -1.8196    2.4915 C   0  0  2  0  0  0  0  0  0  0  0  0
    1.8777   -0.7314    2.0290 C   0  0  0  0  0  0  0  0  0  0  0  0
    4.1080   -0.4180    2.7646 C   0  0  0  0  0  0  0  0  0  0  0  0
    4.9064    1.0231    3.3672 C   0  0  0  0  0  0  0  0  0  0  0  0
    4.2212   -0.8960    4.2120 C   0  0  0  0  0  0  0  0  0  0  0  0
    2.1874   -4.3505    0.8282 C   0  0  0  0  0  0  0  0  0  0  0  0
    3.6312   -3.8863    2.6725 O   0  0  0  0  0  0  0  0  0  0  0  0
    4.6035   -4.7684    2.6094 C   0  0  0  0  0  0  0  0  0  0  0  0
    5.0826   -5.2781    1.5835 O   0  0  0  0  0  0  0  0  0  0  0  0
    5.0874   -4.9763    3.9834 C   0  0  0  0  0  0  0  0  0  0  0  0
    2.6256   -0.1691   -2.4187 H   0  0  0  0  0  0  0  0  0  0  0  0
    2.3789   -1.6208   -1.4654 H   0  0  0  0  0  0  0  0  0  0  0  0
    3.9667   -0.7883   -1.5105 H   0  0  0  0  0  0  0  0  0  0  0  0
    1.3381    0.1737   -0.2662 H   0  0  0  0  0  0  0  0  0  0  0  0
    2.1801    2.2660   -0.3730 H   0  0  0  0  0  0  0  0  0  0  0  0
    3.6241    1.6971   -1.2426 H   0  0  0  0  0  0  0  0  0  0  0  0
    3.7113    2.7598    1.2683 H   0  0  0  0  0  0  0  0  0  0  0  0
    4.9288    1.6381    0.6415 H   0  0  0  0  0  0  0  0  0  0  0  0
    2.6292    1.2367    2.5323 H   0  0  0  0  0  0  0  0  0  0  0  0
    5.0377   -1.6669    1.5834 H   0  0  0  0  0  0  0  0  0  0  0  0
    5.1345   -0.9200    0.0853 H   0  0  0  0  0  0  0  0  0  0  0  0
    4.8716   -3.4624    0.2101 H   0  0  0  0  0  0  0  0  0  0  0  0
    3.4767   -2.8586   -0.5786 H   0  0  0  0  0  0  0  0  0  0  0  0
    1.8092   -2.1675    1.9637 H   0  0  0  0  0  0  0  0  0  0  0  0
    1.7233   -0.3499    3.0764 H   0  0  0  0  0  0  0  0  0  0  0  0
    0.8252   -0.7090    1.6994 H   0  0  0  0  0  0  0  0  0  0  0  0
    5.3045    1.7264    2.6081 H   0  0  0  0  0  0  0  0  0  0  0  0
    5.8683    0.8334    3.8684 H   0  0  0  0  0  0  0  0  0  0  0  0
    4.2826    1.6536    4.0242 H   0  0  0  0  0  0  0  0  0  0  0  0
    4.0201   -1.9588    4.2765 H   0  0  0  0  0  0  0  0  0  0  0  0
    3.5616   -0.3323    4.8706 H   0  0  0  0  0  0  0  0  0  0  0  0
    5.2649   -0.8549    4.5554 H   0  0  0  0  0  0  0  0  0  0  0  0
    1.7158   -4.0828   -0.1337 H   0  0  0  0  0  0  0  0  0  0  0  0
    1.4510   -4.8569    1.4608 H   0  0  0  0  0  0  0  0  0  0  0  0
    2.8477   -5.1914    0.5189 H   0  0  0  0  0  0  0  0  0  0  0  0
    4.4815   -4.4068    4.7040 H   0  0  0  0  0  0  0  0  0  0  0  0
    6.1062   -4.5944    4.0198 H   0  0  0  0  0  0  0  0  0  0  0  0
    5.0006   -6.0345    4.2104 H   0  0  0  0  0  0  0  0  0  0  0  0
  1 20  1  0  0  0  0
  1 21  1  0  0  0  0
  1 22  1  0  0  0  0
  2  3  1  0  0  0  0
  2  6  1  0  0  0  0
  2  1  1  0  0  0  0
  2 23  1  1  0  0  0
  3  4  1  0  0  0  0
  3 24  1  0  0  0  0
  3 25  1  0  0  0  0
  4  5  1  0  0  0  0
  4 26  1  0  0  0  0
  4 27  1  0  0  0  0
  5  6  1  0  0  0  0
  5 12  1  0  0  0  0
  5 28  1  6  0  0  0
  6  7  1  6  0  0  0
  6 11  1  0  0  0  0
  7  8  1  0  0  0  0
  7 29  1  0  0  0  0
  7 30  1  0  0  0  0
  8  9  1  0  0  0  0
  8 31  1  0  0  0  0
  8 32  1  0  0  0  0
  9 10  1  0  0  0  0
  9 15  1  0  0  0  0
  9 16  1  1  0  0  0
 10 11  1  0  0  0  0
 10 12  1  0  0  0  0
 10 33  1  1  0  0  0
 11 34  1  0  0  0  0
 11 35  1  0  0  0  0
 12 13  1  0  0  0  0
 12 14  1  0  0  0  0
 13 36  1  0  0  0  0
 13 37  1  0  0  0  0
 13 38  1  0  0  0  0
 14 39  1  0  0  0  0
 14 40  1  0  0  0  0
 14 41  1  0  0  0  0
 15 42  1  0  0  0  0
 15 43  1  0  0  0  0
 15 44  1  0  0  0  0
 16 17  1  0  0  0  0
 17 18  2  0  0  0  0
 17 19  1  0  0  0  0
 19 45  1  0  0  0  0
 19 46  1  0  0  0  0
 19 47  1  0  0  0  0
M  END
$$$$
