
 OpenBabel07222214433D

 38 38  0  0  1  0  0  0  0  0999 V2000
    2.3450    4.3836   -0.4244 C   0  0  0  0  0  0  0  0  0  0  0  0
    3.3080    4.3870   -1.5590 C   0  0  0  0  0  0  0  0  0  0  0  0
    4.5028    4.9821   -1.5670 C   0  0  0  0  0  0  0  0  0  0  0  0
    5.2108    4.8130   -2.8635 C   0  0  0  0  0  0  0  0  0  0  0  0
    4.4354    3.6506   -3.4974 C   0  0  1  0  0  0  0  0  0  0  0  0
    2.9913    3.7162   -2.8784 C   0  0  0  0  0  0  0  0  0  0  0  0
    1.9517    4.5594   -3.6642 C   0  0  0  0  0  0  0  0  0  0  0  0
    2.4363    2.2945   -2.7257 C   0  0  0  0  0  0  0  0  0  0  0  0
    4.4332    3.7839   -4.9976 C   0  0  0  0  0  0  0  0  0  0  0  0
    5.0331    2.6706   -5.8280 C   0  0  0  0  0  0  0  0  0  0  0  0
    4.7866    3.0770   -7.3017 C   0  0  2  0  0  0  0  0  0  0  0  0
    3.3007    3.3742   -7.5914 C   0  0  0  0  0  0  0  0  0  0  0  0
    5.2799    2.0160   -8.2714 C   0  0  0  0  0  0  0  0  0  0  0  0
    6.6681    1.7810   -8.0996 O   0  0  0  0  0  0  0  0  0  0  0  0
    2.7469    4.9333    0.4314 H   0  0  0  0  0  0  0  0  0  0  0  0
    2.1465    3.3584   -0.1004 H   0  0  0  0  0  0  0  0  0  0  0  0
    1.4000    4.8505   -0.7150 H   0  0  0  0  0  0  0  0  0  0  0  0
    4.9212    5.5539   -0.7479 H   0  0  0  0  0  0  0  0  0  0  0  0
    6.2647    4.5491   -2.7363 H   0  0  0  0  0  0  0  0  0  0  0  0
    5.1516    5.7414   -3.4435 H   0  0  0  0  0  0  0  0  0  0  0  0
    4.9251    2.7098   -3.2048 H   0  0  0  0  0  0  0  0  0  0  0  0
    2.3324    5.5579   -3.9080 H   0  0  0  0  0  0  0  0  0  0  0  0
    1.0187    4.6754   -3.1045 H   0  0  0  0  0  0  0  0  0  0  0  0
    1.6475    4.0805   -4.6049 H   0  0  0  0  0  0  0  0  0  0  0  0
    3.1069    1.6627   -2.1338 H   0  0  0  0  0  0  0  0  0  0  0  0
    2.3020    1.8182   -3.7041 H   0  0  0  0  0  0  0  0  0  0  0  0
    1.4603    2.3043   -2.2281 H   0  0  0  0  0  0  0  0  0  0  0  0
    3.3967    3.7660   -5.2785 H   0  0  0  0  0  0  0  0  0  0  0  0
    4.8365    4.7483   -5.3261 H   0  0  0  0  0  0  0  0  0  0  0  0
    4.5410    1.7155   -5.6007 H   0  0  0  0  0  0  0  0  0  0  0  0
    6.1006    2.5489   -5.6079 H   0  0  0  0  0  0  0  0  0  0  0  0
    5.3601    3.9988   -7.4735 H   0  0  0  0  0  0  0  0  0  0  0  0
    2.6768    2.5169   -7.3135 H   0  0  0  0  0  0  0  0  0  0  0  0
    3.1380    3.6137   -8.6429 H   0  0  0  0  0  0  0  0  0  0  0  0
    2.9276    4.2502   -7.0472 H   0  0  0  0  0  0  0  0  0  0  0  0
    5.1111    2.3482   -9.3006 H   0  0  0  0  0  0  0  0  0  0  0  0
    4.7434    1.0745   -8.1203 H   0  0  0  0  0  0  0  0  0  0  0  0
    7.1224    2.6353   -8.1979 H   0  0  0  0  0  0  0  0  0  0  0  0
  1  2  1  0  0  0  0
  1 15  1  0  0  0  0
  1 16  1  0  0  0  0
  1 17  1  0  0  0  0
  2  3  2  0  0  0  0
  2  6  1  0  0  0  0
  3  4  1  0  0  0  0
  3 18  1  0  0  0  0
  4  5  1  0  0  0  0
  4 19  1  0  0  0  0
  4 20  1  0  0  0  0
  5  6  1  0  0  0  0
  5  9  1  0  0  0  0
  5 21  1  1  0  0  0
  6  7  1  0  0  0  0
  6  8  1  0  0  0  0
  7 22  1  0  0  0  0
  7 23  1  0  0  0  0
  7 24  1  0  0  0  0
  8 25  1  0  0  0  0
  8 26  1  0  0  0  0
  8 27  1  0  0  0  0
  9 10  1  0  0  0  0
  9 28  1  0  0  0  0
  9 29  1  0  0  0  0
 10 30  1  0  0  0  0
 10 31  1  0  0  0  0
 11 13  1  0  0  0  0
 11 12  1  0  0  0  0
 11 10  1  0  0  0  0
 11 32  1  6  0  0  0
 12 33  1  0  0  0  0
 12 34  1  0  0  0  0
 12 35  1  0  0  0  0
 13 14  1  0  0  0  0
 13 36  1  0  0  0  0
 13 37  1  0  0  0  0
 14 38  1  0  0  0  0
M  END
$$$$
