
 OpenBabel07122215493D

 35 35  0  0  0  0  0  0  0  0999 V2000
    0.9264   -0.0332   -0.0138 C   0  0  0  0  0  0  0  0  0  0  0  0
    2.4550   -0.0486    0.0018 C   0  0  0  0  0  0  0  0  0  0  0  0
    2.9813   -1.0735    1.0065 C   0  0  0  0  0  0  0  0  0  0  0  0
    2.5567   -0.7847    2.4199 C   0  0  0  0  0  0  0  0  0  0  0  0
    2.5232    0.5231    2.9173 C   0  0  0  0  0  0  0  0  0  0  0  0
    2.2271    0.7656    4.2482 C   0  0  0  0  0  0  0  0  0  0  0  0
    1.8852   -0.2867    5.1059 C   0  0  0  0  0  0  0  0  0  0  0  0
    1.9176   -1.5952    4.5952 C   0  0  0  0  0  0  0  0  0  0  0  0
    2.2471   -1.8441    3.2685 C   0  0  0  0  0  0  0  0  0  0  0  0
    1.4427    0.0267    6.5335 C   0  0  0  0  0  0  0  0  0  0  0  0
    2.5797    0.7367    7.2910 C   0  0  0  0  0  0  0  0  0  0  0  0
    0.2054    0.9489    6.4842 C   0  0  0  0  0  0  0  0  0  0  0  0
    1.0563   -1.2465    7.3080 C   0  0  0  0  0  0  0  0  0  0  0  0
    3.0080   -0.3712   -1.3606 C   0  0  0  0  0  0  0  0  0  0  0  0
    4.2179   -0.4324   -1.5953 O   0  0  0  0  0  0  0  0  0  0  0  0
    0.5099    0.2133    0.9694 H   0  0  0  0  0  0  0  0  0  0  0  0
    0.5279   -1.0107   -0.3042 H   0  0  0  0  0  0  0  0  0  0  0  0
    0.5526    0.7146   -0.7180 H   0  0  0  0  0  0  0  0  0  0  0  0
    2.8172    0.9596    0.2330 H   0  0  0  0  0  0  0  0  0  0  0  0
    4.0781   -1.1068    0.9990 H   0  0  0  0  0  0  0  0  0  0  0  0
    2.6417   -2.0765    0.7113 H   0  0  0  0  0  0  0  0  0  0  0  0
    2.7061    1.3836    2.2813 H   0  0  0  0  0  0  0  0  0  0  0  0
    2.2589    1.7943    4.5993 H   0  0  0  0  0  0  0  0  0  0  0  0
    1.6895   -2.4586    5.2123 H   0  0  0  0  0  0  0  0  0  0  0  0
    2.2491   -2.8700    2.9078 H   0  0  0  0  0  0  0  0  0  0  0  0
    2.8593    1.6874    6.8223 H   0  0  0  0  0  0  0  0  0  0  0  0
    3.4806    0.1133    7.3252 H   0  0  0  0  0  0  0  0  0  0  0  0
    2.2817    0.9622    8.3203 H   0  0  0  0  0  0  0  0  0  0  0  0
    0.4179    1.9040    5.9891 H   0  0  0  0  0  0  0  0  0  0  0  0
   -0.1512    1.1829    7.4923 H   0  0  0  0  0  0  0  0  0  0  0  0
   -0.6173    0.4766    5.9338 H   0  0  0  0  0  0  0  0  0  0  0  0
    1.9065   -1.9355    7.3844 H   0  0  0  0  0  0  0  0  0  0  0  0
    0.2353   -1.7767    6.8083 H   0  0  0  0  0  0  0  0  0  0  0  0
    0.7260   -1.0168    8.3243 H   0  0  0  0  0  0  0  0  0  0  0  0
    2.2761   -0.5414   -2.1629 H   0  0  0  0  0  0  0  0  0  0  0  0
  1  2  1  0  0  0  0
  1 16  1  0  0  0  0
  1 17  1  0  0  0  0
  1 18  1  0  0  0  0
  2  3  1  0  0  0  0
  2 14  1  0  0  0  0
  2 19  1  0  0  0  0
  3  4  1  0  0  0  0
  3 20  1  0  0  0  0
  3 21  1  0  0  0  0
  4  5  1  0  0  0  0
  4  9  2  0  0  0  0
  5  6  2  0  0  0  0
  5 22  1  0  0  0  0
  6  7  1  0  0  0  0
  6 23  1  0  0  0  0
  7  8  2  0  0  0  0
  7 10  1  0  0  0  0
  8  9  1  0  0  0  0
  8 24  1  0  0  0  0
  9 25  1  0  0  0  0
 10 11  1  0  0  0  0
 10 12  1  0  0  0  0
 10 13  1  0  0  0  0
 11 26  1  0  0  0  0
 11 27  1  0  0  0  0
 11 28  1  0  0  0  0
 12 29  1  0  0  0  0
 12 30  1  0  0  0  0
 12 31  1  0  0  0  0
 13 32  1  0  0  0  0
 13 33  1  0  0  0  0
 13 34  1  0  0  0  0
 14 15  2  0  0  0  0
 14 35  1  0  0  0  0
M  END
$$$$
