
 OpenBabel07122215493D

 14 14  0  0  0  0  0  0  0  0999 V2000
    1.0424    0.0297    0.0319 O   0  0  0  0  0  0  0  0  0  0  0  0
    2.2650    0.0162    0.1401 C   0  0  0  0  0  0  0  0  0  0  0  0
    3.0222   -1.2429    0.2192 C   0  0  0  0  0  0  0  0  0  0  0  0
    4.1758   -1.3157    1.0043 C   0  0  0  0  0  0  0  0  0  0  0  0
    4.9503   -2.4771    0.9746 C   0  0  0  0  0  0  0  0  0  0  0  0
    4.5423   -3.5711    0.2083 C   0  0  0  0  0  0  0  0  0  0  0  0
    3.3766   -3.4982   -0.5561 C   0  0  0  0  0  0  0  0  0  0  0  0
    2.6136   -2.3318   -0.5529 C   0  0  0  0  0  0  0  0  0  0  0  0
    2.8581    0.9445    0.1564 H   0  0  0  0  0  0  0  0  0  0  0  0
    4.4685   -0.4911    1.6490 H   0  0  0  0  0  0  0  0  0  0  0  0
    5.8767   -2.5316    1.5418 H   0  0  0  0  0  0  0  0  0  0  0  0
    5.1322   -4.4849    0.2089 H   0  0  0  0  0  0  0  0  0  0  0  0
    3.0705   -4.3439   -1.1666 H   0  0  0  0  0  0  0  0  0  0  0  0
    1.7176   -2.2619   -1.1654 H   0  0  0  0  0  0  0  0  0  0  0  0
  1  2  2  0  0  0  0
  2  3  1  0  0  0  0
  2  9  1  0  0  0  0
  3  4  1  0  0  0  0
  3  8  2  0  0  0  0
  4  5  2  0  0  0  0
  4 10  1  0  0  0  0
  5  6  1  0  0  0  0
  5 11  1  0  0  0  0
  6  7  2  0  0  0  0
  6 12  1  0  0  0  0
  7  8  1  0  0  0  0
  7 13  1  0  0  0  0
  8 14  1  0  0  0  0
M  END
$$$$
