
 OpenBabel07222214433D

 20 20  0  0  0  0  0  0  0  0999 V2000
    0.9699    0.0754    0.0134 C   0  0  0  0  0  0  0  0  0  0  0  0
    2.3928    0.0372   -0.0241 O   0  0  0  0  0  0  0  0  0  0  0  0
    2.9947    0.7688    0.9675 C   0  0  0  0  0  0  0  0  0  0  0  0
    2.6585    0.6174    2.3165 C   0  0  0  0  0  0  0  0  0  0  0  0
    3.3336    1.3489    3.3053 C   0  0  0  0  0  0  0  0  0  0  0  0
    2.9321    1.2412    4.7472 C   0  0  0  0  0  0  0  0  0  0  0  0
    4.3825    2.1978    2.9327 C   0  0  0  0  0  0  0  0  0  0  0  0
    4.7387    2.3368    1.5894 C   0  0  0  0  0  0  0  0  0  0  0  0
    4.0382    1.6277    0.6132 C   0  0  0  0  0  0  0  0  0  0  0  0
    4.3585    1.7865   -0.7082 O   0  0  0  0  0  0  0  0  0  0  0  0
    0.6004   -0.4631   -0.8650 H   0  0  0  0  0  0  0  0  0  0  0  0
    0.6008    1.1053   -0.0415 H   0  0  0  0  0  0  0  0  0  0  0  0
    0.5687   -0.4329    0.8953 H   0  0  0  0  0  0  0  0  0  0  0  0
    1.8848   -0.0840    2.6107 H   0  0  0  0  0  0  0  0  0  0  0  0
    2.1088    0.5323    4.8828 H   0  0  0  0  0  0  0  0  0  0  0  0
    2.5937    2.2173    5.1104 H   0  0  0  0  0  0  0  0  0  0  0  0
    3.7748    0.9014    5.3570 H   0  0  0  0  0  0  0  0  0  0  0  0
    4.9285    2.7575    3.6898 H   0  0  0  0  0  0  0  0  0  0  0  0
    5.5567    2.9987    1.3255 H   0  0  0  0  0  0  0  0  0  0  0  0
    5.0601    2.4505   -0.7835 H   0  0  0  0  0  0  0  0  0  0  0  0
  1  2  1  0  0  0  0
  1 11  1  0  0  0  0
  1 12  1  0  0  0  0
  1 13  1  0  0  0  0
  2  3  1  0  0  0  0
  3  4  1  0  0  0  0
  3  9  2  0  0  0  0
  4  5  2  0  0  0  0
  4 14  1  0  0  0  0
  5  6  1  0  0  0  0
  5  7  1  0  0  0  0
  6 15  1  0  0  0  0
  6 16  1  0  0  0  0
  6 17  1  0  0  0  0
  7  8  2  0  0  0  0
  7 18  1  0  0  0  0
  8  9  1  0  0  0  0
  8 19  1  0  0  0  0
  9 10  1  0  0  0  0
 10 20  1  0  0  0  0
M  END
$$$$
