
 OpenBabel07222214443D

 18 18  0  0  0  0  0  0  0  0999 V2000
   -1.7363   -1.6474    0.0058 C   0  0  0  0  0  0  0  0  0  0  0  0
   -0.5189   -0.7687    0.0004 C   0  0  0  0  0  0  0  0  0  0  0  0
   -0.5593    0.6296    0.0031 C   0  0  0  0  0  0  0  0  0  0  0  0
    0.6168    1.3835    0.0091 C   0  0  0  0  0  0  0  0  0  0  0  0
    1.8627    0.7549    0.0063 C   0  0  0  0  0  0  0  0  0  0  0  0
    1.9229   -0.6381   -0.0095 C   0  0  0  0  0  0  0  0  0  0  0  0
    0.7434   -1.3940   -0.0088 C   0  0  0  0  0  0  0  0  0  0  0  0
    3.2368   -1.3152   -0.0336 C   0  0  0  0  0  0  0  0  0  0  0  0
    3.3389   -2.5373   -0.0539 O   0  0  0  0  0  0  0  0  0  0  0  0
   -1.7140    1.3573   -0.0003 O   0  0  0  0  0  0  0  0  0  0  0  0
   -2.6748   -1.0908    0.0253 H   0  0  0  0  0  0  0  0  0  0  0  0
   -1.7302   -2.2888    0.8929 H   0  0  0  0  0  0  0  0  0  0  0  0
   -1.7517   -2.2700   -0.8943 H   0  0  0  0  0  0  0  0  0  0  0  0
    0.5529    2.4692    0.0141 H   0  0  0  0  0  0  0  0  0  0  0  0
    2.7638    1.3615    0.0136 H   0  0  0  0  0  0  0  0  0  0  0  0
    0.8126   -2.4818   -0.0169 H   0  0  0  0  0  0  0  0  0  0  0  0
    4.1304   -0.6693   -0.0365 H   0  0  0  0  0  0  0  0  0  0  0  0
   -2.4831    0.7702   -0.0205 H   0  0  0  0  0  0  0  0  0  0  0  0
  1  2  1  0  0  0  0
  1 11  1  0  0  0  0
  1 12  1  0  0  0  0
  1 13  1  0  0  0  0
  2  3  2  0  0  0  0
  2  7  1  0  0  0  0
  3  4  1  0  0  0  0
  3 10  1  0  0  0  0
  4  5  2  0  0  0  0
  4 14  1  0  0  0  0
  5  6  1  0  0  0  0
  5 15  1  0  0  0  0
  6  7  2  0  0  0  0
  6  8  1  0  0  0  0
  7 16  1  0  0  0  0
  8  9  2  0  0  0  0
  8 17  1  0  0  0  0
 10 18  1  0  0  0  0
M  END
$$$$
