
 OpenBabel07202215583D

 23 23  0  0  0  0  0  0  0  0999 V2000
    0.9217   -0.2156    0.2727 C   0  0  0  0  0  0  0  0  0  0  0  0
    2.3363   -0.0537    0.0031 N   0  0  0  0  0  0  0  0  0  0  0  0
    3.0162   -0.8001   -0.9531 C   0  0  0  0  0  0  0  0  0  0  0  0
    4.1029   -1.5925   -0.5023 C   0  0  0  0  0  0  0  0  0  0  0  0
    4.8904   -2.3497   -1.3775 C   0  0  0  0  0  0  0  0  0  0  0  0
    4.5584   -2.3999   -2.7220 C   0  0  0  0  0  0  0  0  0  0  0  0
    3.4752   -1.6515   -3.1908 C   0  0  0  0  0  0  0  0  0  0  0  0
    2.7006   -0.8385   -2.3301 C   0  0  0  0  0  0  0  0  0  0  0  0
    1.6057   -0.0566   -3.0095 C   0  0  0  0  0  0  0  0  0  0  0  0
    1.1867   -0.3358   -4.1186 O   0  0  0  0  0  0  0  0  0  0  0  0
    1.1427    0.9752   -2.2614 O   0  0  0  0  0  0  0  0  0  0  0  0
   -0.1784    1.4529   -2.5608 C   0  0  0  0  0  0  0  0  0  0  0  0
    0.6318    0.4680    1.0764 H   0  0  0  0  0  0  0  0  0  0  0  0
    0.6584   -1.2413    0.5340 H   0  0  0  0  0  0  0  0  0  0  0  0
    0.2763    0.0405   -0.5587 H   0  0  0  0  0  0  0  0  0  0  0  0
    2.8985    0.3599    0.7386 H   0  0  0  0  0  0  0  0  0  0  0  0
    4.3417   -1.6386    0.5597 H   0  0  0  0  0  0  0  0  0  0  0  0
    5.7564   -2.8975   -1.0095 H   0  0  0  0  0  0  0  0  0  0  0  0
    5.1356   -3.0181   -3.4064 H   0  0  0  0  0  0  0  0  0  0  0  0
    3.2457   -1.6876   -4.2545 H   0  0  0  0  0  0  0  0  0  0  0  0
   -0.6009    1.8736   -1.6379 H   0  0  0  0  0  0  0  0  0  0  0  0
   -0.8542    0.6486   -2.8772 H   0  0  0  0  0  0  0  0  0  0  0  0
   -0.1178    2.2461   -3.3033 H   0  0  0  0  0  0  0  0  0  0  0  0
  1  2  1  0  0  0  0
  1 13  1  0  0  0  0
  1 14  1  0  0  0  0
  1 15  1  0  0  0  0
  2  3  1  0  0  0  0
  2 16  1  0  0  0  0
  3  4  2  0  0  0  0
  3  8  1  0  0  0  0
  4  5  1  0  0  0  0
  4 17  1  0  0  0  0
  5  6  2  0  0  0  0
  5 18  1  0  0  0  0
  6  7  1  0  0  0  0
  6 19  1  0  0  0  0
  7  8  2  0  0  0  0
  7 20  1  0  0  0  0
  8  9  1  0  0  0  0
  9 10  2  0  0  0  0
  9 11  1  0  0  0  0
 11 12  1  0  0  0  0
 12 21  1  0  0  0  0
 12 22  1  0  0  0  0
 12 23  1  0  0  0  0
M  END
$$$$
