
 OpenBabel07222214443D

 22 21  0  0  0  0  0  0  0  0999 V2000
    0.9622    0.4148   -0.0860 C   0  0  0  0  0  0  0  0  0  0  0  0
    2.4529    0.0970   -0.0439 C   0  0  0  0  0  0  0  0  0  0  0  0
    2.8776   -0.9571    0.9071 N   0  0  0  0  0  0  0  0  0  0  0  0
    2.3962   -2.3084    0.5563 C   0  0  0  0  0  0  0  0  0  0  0  0
    0.8988   -2.5600    0.6759 C   0  0  0  0  0  0  0  0  0  0  0  0
    4.3648   -0.9457    0.9634 C   0  0  0  0  0  0  0  0  0  0  0  0
    4.9799   -1.8905    1.9964 C   0  0  0  0  0  0  0  0  0  0  0  0
    0.7932    1.3731   -0.5871 H   0  0  0  0  0  0  0  0  0  0  0  0
    0.5319    0.4770    0.9174 H   0  0  0  0  0  0  0  0  0  0  0  0
    0.4062   -0.3169   -0.6744 H   0  0  0  0  0  0  0  0  0  0  0  0
    2.9391    1.0385    0.2531 H   0  0  0  0  0  0  0  0  0  0  0  0
    2.8047   -0.1287   -1.0570 H   0  0  0  0  0  0  0  0  0  0  0  0
    2.8229   -3.0235    1.2688 H   0  0  0  0  0  0  0  0  0  0  0  0
    2.7496   -2.6025   -0.4368 H   0  0  0  0  0  0  0  0  0  0  0  0
    0.4856   -2.1139    1.5843 H   0  0  0  0  0  0  0  0  0  0  0  0
    0.7094   -3.6375    0.7150 H   0  0  0  0  0  0  0  0  0  0  0  0
    0.3482   -2.2002   -0.1945 H   0  0  0  0  0  0  0  0  0  0  0  0
    4.7070    0.0649    1.2249 H   0  0  0  0  0  0  0  0  0  0  0  0
    4.7866   -1.1769   -0.0239 H   0  0  0  0  0  0  0  0  0  0  0  0
    4.6014   -1.6757    3.0004 H   0  0  0  0  0  0  0  0  0  0  0  0
    6.0686   -1.7745    2.0103 H   0  0  0  0  0  0  0  0  0  0  0  0
    4.7882   -2.9427    1.7675 H   0  0  0  0  0  0  0  0  0  0  0  0
  1  2  1  0  0  0  0
  1  8  1  0  0  0  0
  1  9  1  0  0  0  0
  1 10  1  0  0  0  0
  2  3  1  0  0  0  0
  2 11  1  0  0  0  0
  2 12  1  0  0  0  0
  3  4  1  0  0  0  0
  3  6  1  0  0  0  0
  4  5  1  0  0  0  0
  4 13  1  0  0  0  0
  4 14  1  0  0  0  0
  5 15  1  0  0  0  0
  5 16  1  0  0  0  0
  5 17  1  0  0  0  0
  6  7  1  0  0  0  0
  6 18  1  0  0  0  0
  6 19  1  0  0  0  0
  7 20  1  0  0  0  0
  7 21  1  0  0  0  0
  7 22  1  0  0  0  0
M  END
$$$$
