
 OpenBabel07122215493D

 18 18  0  0  0  0  0  0  0  0999 V2000
    1.0927    0.0835   -0.1256 C   0  0  0  0  0  0  0  0  0  0  0  0
    2.5849    0.1033    0.0278 C   0  0  0  0  0  0  0  0  0  0  0  0
    3.1381   -0.0625    1.1125 O   0  0  0  0  0  0  0  0  0  0  0  0
    3.2137    0.3313   -1.1951 O   0  0  0  0  0  0  0  0  0  0  0  0
    4.6238    0.2390   -1.2414 C   0  0  0  0  0  0  0  0  0  0  0  0
    5.3155    1.1404   -2.0538 C   0  0  0  0  0  0  0  0  0  0  0  0
    6.7037    1.0200   -2.1922 C   0  0  0  0  0  0  0  0  0  0  0  0
    7.4002    0.0446   -1.4759 C   0  0  0  0  0  0  0  0  0  0  0  0
    6.7048   -0.8522   -0.6683 C   0  0  0  0  0  0  0  0  0  0  0  0
    5.3155   -0.7747   -0.5748 C   0  0  0  0  0  0  0  0  0  0  0  0
    0.6524   -0.0687    0.8668 H   0  0  0  0  0  0  0  0  0  0  0  0
    0.7730   -0.7454   -0.7621 H   0  0  0  0  0  0  0  0  0  0  0  0
    0.7311    1.0390   -0.5104 H   0  0  0  0  0  0  0  0  0  0  0  0
    4.7925    1.9364   -2.5755 H   0  0  0  0  0  0  0  0  0  0  0  0
    7.2490    1.6836   -2.8593 H   0  0  0  0  0  0  0  0  0  0  0  0
    8.4834   -0.0192   -1.5463 H   0  0  0  0  0  0  0  0  0  0  0  0
    7.2391   -1.6191   -0.1140 H   0  0  0  0  0  0  0  0  0  0  0  0
    4.7914   -1.5006    0.0388 H   0  0  0  0  0  0  0  0  0  0  0  0
  1  2  1  0  0  0  0
  1 11  1  0  0  0  0
  1 12  1  0  0  0  0
  1 13  1  0  0  0  0
  2  3  2  0  0  0  0
  2  4  1  0  0  0  0
  4  5  1  0  0  0  0
  5  6  2  0  0  0  0
  5 10  1  0  0  0  0
  6  7  1  0  0  0  0
  6 14  1  0  0  0  0
  7  8  2  0  0  0  0
  7 15  1  0  0  0  0
  8  9  1  0  0  0  0
  8 16  1  0  0  0  0
  9 10  2  0  0  0  0
  9 17  1  0  0  0  0
 10 18  1  0  0  0  0
M  END
$$$$
