
 OpenBabel07202215583D

 32 32  0  0  0  0  0  0  0  0999 V2000
    0.9469    0.0072   -0.0213 C   0  0  0  0  0  0  0  0  0  0  0  0
    2.4839   -0.0015   -0.0572 C   0  0  0  0  0  0  0  0  0  0  0  0
    2.9938   -1.4295   -0.1871 C   0  0  0  0  0  0  0  0  0  0  0  0
    2.9760    0.8998   -1.1656 C   0  0  0  0  0  0  0  0  0  0  0  0
    3.8063    0.4943   -2.2243 C   0  0  0  0  0  0  0  0  0  0  0  0
    4.2188    1.4008   -3.2027 C   0  0  0  0  0  0  0  0  0  0  0  0
    3.6914    2.6906   -3.2121 C   0  0  0  0  0  0  0  0  0  0  0  0
    2.8122    3.0540   -2.1840 C   0  0  0  0  0  0  0  0  0  0  0  0
    2.5368    2.2152   -1.1314 C   0  0  0  0  0  0  0  0  0  0  0  0
    4.0411    3.6449   -4.3292 C   0  0  0  0  0  0  0  0  0  0  0  0
    3.4273    5.0412   -4.1455 C   0  0  0  0  0  0  0  0  0  0  0  0
    4.0008    5.7690   -2.9210 C   0  0  0  0  0  0  0  0  0  0  0  0
    3.6670    5.9084   -5.3514 C   0  0  0  0  0  0  0  0  0  0  0  0
    3.2149    7.0535   -5.4418 O   0  0  0  0  0  0  0  0  0  0  0  0
    0.5704   -0.6216    0.7887 H   0  0  0  0  0  0  0  0  0  0  0  0
    0.5337   -0.3499   -0.9714 H   0  0  0  0  0  0  0  0  0  0  0  0
    0.5383    1.0113    0.1453 H   0  0  0  0  0  0  0  0  0  0  0  0
    2.8602    0.4119    0.8893 H   0  0  0  0  0  0  0  0  0  0  0  0
    2.6484   -1.8802   -1.1246 H   0  0  0  0  0  0  0  0  0  0  0  0
    2.6388   -2.0473    0.6403 H   0  0  0  0  0  0  0  0  0  0  0  0
    4.0895   -1.4499   -0.1800 H   0  0  0  0  0  0  0  0  0  0  0  0
    4.1366   -0.5358   -2.3227 H   0  0  0  0  0  0  0  0  0  0  0  0
    4.9217    1.0768   -3.9673 H   0  0  0  0  0  0  0  0  0  0  0  0
    2.3113    4.0139   -2.1396 H   0  0  0  0  0  0  0  0  0  0  0  0
    1.9209    2.5943   -0.3205 H   0  0  0  0  0  0  0  0  0  0  0  0
    3.6804    3.2016   -5.2681 H   0  0  0  0  0  0  0  0  0  0  0  0
    5.1328    3.7262   -4.4186 H   0  0  0  0  0  0  0  0  0  0  0  0
    2.3348    4.9352   -4.0763 H   0  0  0  0  0  0  0  0  0  0  0  0
    5.0699    5.9516   -3.0489 H   0  0  0  0  0  0  0  0  0  0  0  0
    3.9096    5.2253   -1.9778 H   0  0  0  0  0  0  0  0  0  0  0  0
    3.4841    6.7200   -2.7678 H   0  0  0  0  0  0  0  0  0  0  0  0
    4.2834    5.4873   -6.1582 H   0  0  0  0  0  0  0  0  0  0  0  0
  1  2  1  0  0  0  0
  1 15  1  0  0  0  0
  1 16  1  0  0  0  0
  1 17  1  0  0  0  0
  2  3  1  0  0  0  0
  2  4  1  0  0  0  0
  2 18  1  0  0  0  0
  3 19  1  0  0  0  0
  3 20  1  0  0  0  0
  3 21  1  0  0  0  0
  4  5  2  0  0  0  0
  4  9  1  0  0  0  0
  5  6  1  0  0  0  0
  5 22  1  0  0  0  0
  6  7  2  0  0  0  0
  6 23  1  0  0  0  0
  7  8  1  0  0  0  0
  7 10  1  0  0  0  0
  8  9  2  0  0  0  0
  8 24  1  0  0  0  0
  9 25  1  0  0  0  0
 10 11  1  0  0  0  0
 10 26  1  0  0  0  0
 10 27  1  0  0  0  0
 11 12  1  0  0  0  0
 11 13  1  0  0  0  0
 11 28  1  0  0  0  0
 12 29  1  0  0  0  0
 12 30  1  0  0  0  0
 12 31  1  0  0  0  0
 13 14  2  0  0  0  0
 13 32  1  0  0  0  0
M  END
$$$$
