
 OpenBabel07202215583D

 31 31  0  0  1  0  0  0  0  0999 V2000
    1.0390    0.0935   -0.2105 C   0  0  0  0  0  0  0  0  0  0  0  0
    2.5660    0.0671   -0.0565 C   0  0  0  0  0  0  0  0  0  0  0  0
    3.1254    1.4781   -0.2696 C   0  0  0  0  0  0  0  0  0  0  0  0
    3.0160   -0.5596    1.3008 C   0  0  2  0  0  0  0  0  0  0  0  0
    2.7986   -2.0911    1.2758 C   0  0  0  0  0  0  0  0  0  0  0  0
    3.0618   -2.7663    2.6206 C   0  0  0  0  0  0  0  0  0  0  0  0
    2.2664   -2.1002    3.7463 C   0  0  1  0  0  0  0  0  0  0  0  0
    2.5355   -2.7631    5.0897 C   0  0  0  0  0  0  0  0  0  0  0  0
    2.6073   -0.6161    3.8282 C   0  0  0  0  0  0  0  0  0  0  0  0
    2.3020    0.0795    2.5143 C   0  0  1  0  0  0  0  0  0  0  0  0
    2.6421    1.4534    2.6677 O   0  0  0  0  0  0  0  0  0  0  0  0
    0.7486    0.4645   -1.1966 H   0  0  0  0  0  0  0  0  0  0  0  0
    0.5703    0.7526    0.5272 H   0  0  0  0  0  0  0  0  0  0  0  0
    0.6053   -0.9037   -0.0938 H   0  0  0  0  0  0  0  0  0  0  0  0
    2.9717   -0.5547   -0.8666 H   0  0  0  0  0  0  0  0  0  0  0  0
    2.7470    2.1930    0.4642 H   0  0  0  0  0  0  0  0  0  0  0  0
    2.8355    1.8624   -1.2529 H   0  0  0  0  0  0  0  0  0  0  0  0
    4.2188    1.4781   -0.2163 H   0  0  0  0  0  0  0  0  0  0  0  0
    4.0983   -0.3872    1.4014 H   0  0  0  0  0  0  0  0  0  0  0  0
    3.4445   -2.5457    0.5133 H   0  0  0  0  0  0  0  0  0  0  0  0
    1.7697   -2.3248    0.9836 H   0  0  0  0  0  0  0  0  0  0  0  0
    4.1353   -2.7369    2.8431 H   0  0  0  0  0  0  0  0  0  0  0  0
    2.7805   -3.8242    2.5460 H   0  0  0  0  0  0  0  0  0  0  0  0
    1.1953   -2.2040    3.5238 H   0  0  0  0  0  0  0  0  0  0  0  0
    3.5916   -2.6788    5.3649 H   0  0  0  0  0  0  0  0  0  0  0  0
    2.2674   -3.8229    5.0610 H   0  0  0  0  0  0  0  0  0  0  0  0
    1.9412   -2.2842    5.8757 H   0  0  0  0  0  0  0  0  0  0  0  0
    3.6590   -0.4640    4.1016 H   0  0  0  0  0  0  0  0  0  0  0  0
    2.0191   -0.1345    4.6202 H   0  0  0  0  0  0  0  0  0  0  0  0
    1.2192    0.0270    2.3778 H   0  0  0  0  0  0  0  0  0  0  0  0
    3.6071    1.5274    2.6709 H   0  0  0  0  0  0  0  0  0  0  0  0
  1  2  1  0  0  0  0
  1 12  1  0  0  0  0
  1 13  1  0  0  0  0
  1 14  1  0  0  0  0
  2  3  1  0  0  0  0
  2  4  1  0  0  0  0
  2 15  1  0  0  0  0
  3 16  1  0  0  0  0
  3 17  1  0  0  0  0
  3 18  1  0  0  0  0
  4  5  1  0  0  0  0
  4 10  1  0  0  0  0
  4 19  1  1  0  0  0
  5  6  1  0  0  0  0
  5 20  1  0  0  0  0
  5 21  1  0  0  0  0
  6  7  1  0  0  0  0
  6 22  1  0  0  0  0
  6 23  1  0  0  0  0
  7  8  1  0  0  0  0
  7  9  1  0  0  0  0
  7 24  1  6  0  0  0
  8 25  1  0  0  0  0
  8 26  1  0  0  0  0
  8 27  1  0  0  0  0
  9 10  1  0  0  0  0
  9 28  1  0  0  0  0
  9 29  1  0  0  0  0
 10 11  1  0  0  0  0
 10 30  1  6  0  0  0
 11 31  1  0  0  0  0
M  END
$$$$
