
 OpenBabel07202215583D

 27 27  0  0  0  0  0  0  0  0999 V2000
    0.9461    0.0458    0.0338 C   0  0  0  0  0  0  0  0  0  0  0  0
    2.4373    0.0499    0.0052 C   0  0  0  0  0  0  0  0  0  0  0  0
    3.1689   -0.9202   -0.5780 C   0  0  0  0  0  0  0  0  0  0  0  0
    4.6367   -0.9547   -0.5289 C   0  0  0  0  0  0  0  0  0  0  0  0
    5.3945   -1.3950   -1.6240 C   0  0  0  0  0  0  0  0  0  0  0  0
    6.7913   -1.5496   -1.5209 C   0  0  0  0  0  0  0  0  0  0  0  0
    7.4467   -1.1523   -0.3394 C   0  0  0  0  0  0  0  0  0  0  0  0
    6.6870   -0.7358    0.7537 C   0  0  0  0  0  0  0  0  0  0  0  0
    5.2991   -0.6538    0.6639 C   0  0  0  0  0  0  0  0  0  0  0  0
    8.8115   -1.1754   -0.3258 O   0  0  0  0  0  0  0  0  0  0  0  0
    9.5050   -0.7365    0.8263 C   0  0  0  0  0  0  0  0  0  0  0  0
    7.3814   -2.1170   -2.6306 O   0  0  0  0  0  0  0  0  0  0  0  0
    8.7376   -2.5437   -2.4933 C   0  0  0  0  0  0  0  0  0  0  0  0
    0.5829    0.9437    0.5458 H   0  0  0  0  0  0  0  0  0  0  0  0
    0.5678   -0.8228    0.5824 H   0  0  0  0  0  0  0  0  0  0  0  0
    0.5356    0.0473   -0.9794 H   0  0  0  0  0  0  0  0  0  0  0  0
    2.9254    0.8879    0.4950 H   0  0  0  0  0  0  0  0  0  0  0  0
    2.6809   -1.7549   -1.0723 H   0  0  0  0  0  0  0  0  0  0  0  0
    4.9040   -1.6265   -2.5680 H   0  0  0  0  0  0  0  0  0  0  0  0
    7.1451   -0.4801    1.7018 H   0  0  0  0  0  0  0  0  0  0  0  0
    4.7387   -0.3532    1.5457 H   0  0  0  0  0  0  0  0  0  0  0  0
   10.5740   -0.8012    0.6026 H   0  0  0  0  0  0  0  0  0  0  0  0
    9.2985   -1.3958    1.6737 H   0  0  0  0  0  0  0  0  0  0  0  0
    9.2729    0.3075    1.0554 H   0  0  0  0  0  0  0  0  0  0  0  0
    9.0182   -3.1392   -3.3659 H   0  0  0  0  0  0  0  0  0  0  0  0
    8.8815   -3.1856   -1.6138 H   0  0  0  0  0  0  0  0  0  0  0  0
    9.4057   -1.6759   -2.4815 H   0  0  0  0  0  0  0  0  0  0  0  0
  1  2  1  0  0  0  0
  1 14  1  0  0  0  0
  1 15  1  0  0  0  0
  1 16  1  0  0  0  0
  2  3  2  0  0  0  0
  2 17  1  0  0  0  0
  3  4  1  0  0  0  0
  3 18  1  0  0  0  0
  4  5  2  0  0  0  0
  4  9  1  0  0  0  0
  5  6  1  0  0  0  0
  5 19  1  0  0  0  0
  6  7  2  0  0  0  0
  6 12  1  0  0  0  0
  7  8  1  0  0  0  0
  7 10  1  0  0  0  0
  8  9  2  0  0  0  0
  8 20  1  0  0  0  0
  9 21  1  0  0  0  0
 10 11  1  0  0  0  0
 11 22  1  0  0  0  0
 11 23  1  0  0  0  0
 11 24  1  0  0  0  0
 12 13  1  0  0  0  0
 13 25  1  0  0  0  0
 13 26  1  0  0  0  0
 13 27  1  0  0  0  0
M  END
$$$$
