
 OpenBabel07202215583D

 32 31  0  0  0  0  0  0  0  0999 V2000
    0.9701    0.0802    0.0457 C   0  0  0  0  0  0  0  0  0  0  0  0
    2.4860    0.0792    0.0527 C   0  0  0  0  0  0  0  0  0  0  0  0
    3.0088   -0.1297    1.4665 C   0  0  0  0  0  0  0  0  0  0  0  0
    4.5286   -0.1314    1.4776 C   0  0  0  0  0  0  0  0  0  0  0  0
    5.0389   -0.3406    2.8939 C   0  0  0  0  0  0  0  0  0  0  0  0
    6.5562   -0.3424    2.9061 C   0  0  0  0  0  0  0  0  0  0  0  0
    7.0711   -0.5517    4.3222 C   0  0  0  0  0  0  0  0  0  0  0  0
    8.5897   -0.5496    4.3084 C   0  0  0  0  0  0  0  0  0  0  0  0
    9.1667   -0.7549    5.6976 C   0  0  0  0  0  0  0  0  0  0  0  0
   10.6764   -0.7658    5.7711 C   0  0  0  0  0  0  0  0  0  0  0  0
   11.3539   -0.5956    4.6195 O   0  0  0  0  0  0  0  0  0  0  0  0
   11.2687   -0.9227    6.8331 O   0  0  0  0  0  0  0  0  0  0  0  0
    0.5960    0.2304   -0.9703 H   0  0  0  0  0  0  0  0  0  0  0  0
    0.5813    0.8832    0.6801 H   0  0  0  0  0  0  0  0  0  0  0  0
    0.5813   -0.8719    0.4207 H   0  0  0  0  0  0  0  0  0  0  0  0
    2.8572    1.0307   -0.3456 H   0  0  0  0  0  0  0  0  0  0  0  0
    2.8572   -0.7164   -0.6038 H   0  0  0  0  0  0  0  0  0  0  0  0
    2.6360   -1.0810    1.8661 H   0  0  0  0  0  0  0  0  0  0  0  0
    2.6360    0.6653    2.1242 H   0  0  0  0  0  0  0  0  0  0  0  0
    4.9067    0.8197    1.0828 H   0  0  0  0  0  0  0  0  0  0  0  0
    4.9067   -0.9275    0.8246 H   0  0  0  0  0  0  0  0  0  0  0  0
    4.6635   -1.2921    3.2900 H   0  0  0  0  0  0  0  0  0  0  0  0
    4.6635    0.4556    3.5482 H   0  0  0  0  0  0  0  0  0  0  0  0
    6.9330    0.6084    2.5083 H   0  0  0  0  0  0  0  0  0  0  0  0
    6.9330   -1.1375    2.2503 H   0  0  0  0  0  0  0  0  0  0  0  0
    6.6983   -1.5038    4.7185 H   0  0  0  0  0  0  0  0  0  0  0  0
    6.6983    0.2451    4.9769 H   0  0  0  0  0  0  0  0  0  0  0  0
    8.9420    0.4055    3.8995 H   0  0  0  0  0  0  0  0  0  0  0  0
    8.9420   -1.3457    3.6408 H   0  0  0  0  0  0  0  0  0  0  0  0
    8.8096   -1.7115    6.0981 H   0  0  0  0  0  0  0  0  0  0  0  0
    8.8096    0.0450    6.3576 H   0  0  0  0  0  0  0  0  0  0  0  0
   10.8376   -0.4750    3.8033 H   0  0  0  0  0  0  0  0  0  0  0  0
  1  2  1  0  0  0  0
  1 13  1  0  0  0  0
  1 14  1  0  0  0  0
  1 15  1  0  0  0  0
  2  3  1  0  0  0  0
  2 16  1  0  0  0  0
  2 17  1  0  0  0  0
  3  4  1  0  0  0  0
  3 18  1  0  0  0  0
  3 19  1  0  0  0  0
  4  5  1  0  0  0  0
  4 20  1  0  0  0  0
  4 21  1  0  0  0  0
  5  6  1  0  0  0  0
  5 22  1  0  0  0  0
  5 23  1  0  0  0  0
  6  7  1  0  0  0  0
  6 24  1  0  0  0  0
  6 25  1  0  0  0  0
  7  8  1  0  0  0  0
  7 26  1  0  0  0  0
  7 27  1  0  0  0  0
  8  9  1  0  0  0  0
  8 28  1  0  0  0  0
  8 29  1  0  0  0  0
  9 10  1  0  0  0  0
  9 30  1  0  0  0  0
  9 31  1  0  0  0  0
 10 11  1  0  0  0  0
 10 12  2  0  0  0  0
 11 32  1  0  0  0  0
M  END
$$$$
