
 OpenBabel07202215583D

 33 32  0  0  0  0  0  0  0  0999 V2000
    1.1872    0.1299   -1.2856 C   0  0  0  0  0  0  0  0  0  0  0  0
    2.4567   -0.4811   -0.9531 O   0  0  0  0  0  0  0  0  0  0  0  0
    2.8391   -1.4744    0.0354 C   0  0  0  0  0  0  0  0  0  0  0  0
    0.8192   -0.0929    1.4868 C   0  0  0  0  0  0  0  0  0  0  0  0
    2.1722    0.5030    1.5064 O   0  0  0  0  0  0  0  0  0  0  0  0
    2.8308    1.4924    0.7854 C   0  0  0  0  0  0  0  0  0  0  0  0
    4.2465    1.3592    0.4720 C   0  0  0  0  0  0  0  0  0  0  0  0
    5.0803    2.4570    0.1280 C   0  0  0  0  0  0  0  0  0  0  0  0
    6.6112    2.3174    0.0187 C   0  0  0  0  0  0  0  0  0  0  0  0
    7.4096    3.6247   -0.0063 C   0  0  0  0  0  0  0  0  0  0  0  0
    8.7055    3.7727   -0.0217 C   0  0  0  0  0  0  0  0  0  0  0  0
    4.4275    3.6821   -0.0027 C   0  0  0  0  0  0  0  0  0  0  0  0
    3.0374    3.7898    0.1059 C   0  0  0  0  0  0  0  0  0  0  0  0
    2.2448    2.7028    0.4818 C   0  0  0  0  0  0  0  0  0  0  0  0
    0.8962    2.8548    0.5905 O   0  0  0  0  0  0  0  0  0  0  0  0
    1.3694    1.0162   -1.9096 H   0  0  0  0  0  0  0  0  0  0  0  0
    0.5748    0.6828   -0.5543 H   0  0  0  0  0  0  0  0  0  0  0  0
    0.5247   -0.5682   -1.7908 H   0  0  0  0  0  0  0  0  0  0  0  0
    3.9392   -1.4702    0.0741 H   0  0  0  0  0  0  0  0  0  0  0  0
    2.4911   -2.4758   -0.1814 H   0  0  0  0  0  0  0  0  0  0  0  0
    2.6839   -1.3598    1.1197 H   0  0  0  0  0  0  0  0  0  0  0  0
    0.9069   -1.0978    1.9355 H   0  0  0  0  0  0  0  0  0  0  0  0
    0.3264   -0.5021    0.5860 H   0  0  0  0  0  0  0  0  0  0  0  0
    0.0851    0.5076    2.0044 H   0  0  0  0  0  0  0  0  0  0  0  0
    4.7413    0.3882    0.4693 H   0  0  0  0  0  0  0  0  0  0  0  0
    6.8870    1.7317   -0.8708 H   0  0  0  0  0  0  0  0  0  0  0  0
    6.9598    1.7538    0.8960 H   0  0  0  0  0  0  0  0  0  0  0  0
    6.8511    4.5644    0.0062 H   0  0  0  0  0  0  0  0  0  0  0  0
    9.4106    2.9337   -0.0233 H   0  0  0  0  0  0  0  0  0  0  0  0
    9.1408    4.7832   -0.0302 H   0  0  0  0  0  0  0  0  0  0  0  0
    4.9639    4.6105   -0.1514 H   0  0  0  0  0  0  0  0  0  0  0  0
    2.6071    4.7770   -0.0215 H   0  0  0  0  0  0  0  0  0  0  0  0
    0.6612    3.6683    0.1180 H   0  0  0  0  0  0  0  0  0  0  0  0
  1  2  1  0  0  0  0
  1 16  1  0  0  0  0
  1 17  1  0  0  0  0
  1 18  1  0  0  0  0
  2  3  1  0  0  0  0
  3 19  1  0  0  0  0
  3 20  1  0  0  0  0
  3 21  1  0  0  0  0
  4  5  1  0  0  0  0
  4 22  1  0  0  0  0
  4 23  1  0  0  0  0
  4 24  1  0  0  0  0
  5  6  1  0  0  0  0
  6  7  1  0  0  0  0
  6 14  2  0  0  0  0
  7  8  2  0  0  0  0
  7 25  1  0  0  0  0
  8  9  1  0  0  0  0
  8 12  1  0  0  0  0
  9 10  1  0  0  0  0
  9 26  1  0  0  0  0
  9 27  1  0  0  0  0
 10 11  2  0  0  0  0
 10 28  1  0  0  0  0
 11 29  1  0  0  0  0
 11 30  1  0  0  0  0
 12 13  2  0  0  0  0
 12 31  1  0  0  0  0
 13 14  1  0  0  0  0
 13 32  1  0  0  0  0
 14 15  1  0  0  0  0
 15 33  1  0  0  0  0
M  END
$$$$
