
 OpenBabel07202215583D

 23 23  0  0  0  0  0  0  0  0999 V2000
    1.0919   -0.1006    0.0324 C   0  0  0  0  0  0  0  0  0  0  0  0
    2.5156   -0.1840   -0.0369 O   0  0  0  0  0  0  0  0  0  0  0  0
    3.0959    0.7531   -0.8469 C   0  0  0  0  0  0  0  0  0  0  0  0
    4.2072    0.3576   -1.5922 C   0  0  0  0  0  0  0  0  0  0  0  0
    4.8731    1.2782   -2.4166 C   0  0  0  0  0  0  0  0  0  0  0  0
    4.4054    2.5950   -2.5389 C   0  0  0  0  0  0  0  0  0  0  0  0
    5.0216    3.5127   -3.5138 C   0  0  0  0  0  0  0  0  0  0  0  0
    4.5817    4.7616   -3.7648 C   0  0  0  0  0  0  0  0  0  0  0  0
    5.1572    5.6770   -4.7884 C   0  0  0  0  0  0  0  0  0  0  0  0
    3.3222    2.9816   -1.7418 C   0  0  0  0  0  0  0  0  0  0  0  0
    2.6813    2.0779   -0.8985 C   0  0  0  0  0  0  0  0  0  0  0  0
    0.7480   -0.8193    0.7814 H   0  0  0  0  0  0  0  0  0  0  0  0
    0.6545   -0.3706   -0.9341 H   0  0  0  0  0  0  0  0  0  0  0  0
    0.7263    0.8793    0.3540 H   0  0  0  0  0  0  0  0  0  0  0  0
    4.5487   -0.6739   -1.5504 H   0  0  0  0  0  0  0  0  0  0  0  0
    5.7515    0.9480   -2.9673 H   0  0  0  0  0  0  0  0  0  0  0  0
    5.8543    3.1171   -4.0894 H   0  0  0  0  0  0  0  0  0  0  0  0
    3.7407    5.1835   -3.2270 H   0  0  0  0  0  0  0  0  0  0  0  0
    5.9825    5.2193   -5.3389 H   0  0  0  0  0  0  0  0  0  0  0  0
    5.5204    6.5863   -4.3002 H   0  0  0  0  0  0  0  0  0  0  0  0
    4.3774    5.9605   -5.5030 H   0  0  0  0  0  0  0  0  0  0  0  0
    2.9422    3.9970   -1.7521 H   0  0  0  0  0  0  0  0  0  0  0  0
    1.8683    2.4518   -0.2886 H   0  0  0  0  0  0  0  0  0  0  0  0
  1  2  1  0  0  0  0
  1 12  1  0  0  0  0
  1 13  1  0  0  0  0
  1 14  1  0  0  0  0
  2  3  1  0  0  0  0
  3  4  1  0  0  0  0
  3 11  2  0  0  0  0
  4  5  2  0  0  0  0
  4 15  1  0  0  0  0
  5  6  1  0  0  0  0
  5 16  1  0  0  0  0
  6  7  1  0  0  0  0
  6 10  2  0  0  0  0
  7  8  2  0  0  0  0
  7 17  1  0  0  0  0
  8  9  1  0  0  0  0
  8 18  1  0  0  0  0
  9 19  1  0  0  0  0
  9 20  1  0  0  0  0
  9 21  1  0  0  0  0
 10 11  1  0  0  0  0
 10 22  1  0  0  0  0
 11 23  1  0  0  0  0
M  END
$$$$
