
 OpenBabel07222214433D

 20 19  0  0  0  0  0  0  0  0999 V2000
    0.9082   -0.0583   -0.0221 C   0  0  0  0  0  0  0  0  0  0  0  0
    2.4369   -0.0778   -0.0383 C   0  0  0  0  0  0  0  0  0  0  0  0
    2.9286   -1.4596   -0.4676 C   0  0  0  0  0  0  0  0  0  0  0  0
    2.9448    1.0193   -0.9827 C   0  0  0  0  0  0  0  0  0  0  0  0
    4.4658    1.1086   -1.0428 C   0  0  0  0  0  0  0  0  0  0  0  0
    5.0314    2.1608   -1.9661 C   0  0  0  0  0  0  0  0  0  0  0  0
    4.1546    2.9188   -2.6495 O   0  0  0  0  0  0  0  0  0  0  0  0
    6.2408    2.3120   -2.1032 O   0  0  0  0  0  0  0  0  0  0  0  0
    0.5166   -0.8192    0.6597 H   0  0  0  0  0  0  0  0  0  0  0  0
    0.5042   -0.2563   -1.0214 H   0  0  0  0  0  0  0  0  0  0  0  0
    0.5323    0.9168    0.3055 H   0  0  0  0  0  0  0  0  0  0  0  0
    2.7989    0.1286    0.9770 H   0  0  0  0  0  0  0  0  0  0  0  0
    2.6027   -1.6867   -1.4885 H   0  0  0  0  0  0  0  0  0  0  0  0
    2.5428   -2.2357    0.1993 H   0  0  0  0  0  0  0  0  0  0  0  0
    4.0197   -1.5275   -0.4378 H   0  0  0  0  0  0  0  0  0  0  0  0
    2.5422    1.9860   -0.6526 H   0  0  0  0  0  0  0  0  0  0  0  0
    2.5507    0.8343   -1.9903 H   0  0  0  0  0  0  0  0  0  0  0  0
    4.8807    0.1577   -1.3931 H   0  0  0  0  0  0  0  0  0  0  0  0
    4.8540    1.3011   -0.0354 H   0  0  0  0  0  0  0  0  0  0  0  0
    3.2076    2.7470   -2.5059 H   0  0  0  0  0  0  0  0  0  0  0  0
  1  2  1  0  0  0  0
  1  9  1  0  0  0  0
  1 10  1  0  0  0  0
  1 11  1  0  0  0  0
  2  3  1  0  0  0  0
  2  4  1  0  0  0  0
  2 12  1  0  0  0  0
  3 13  1  0  0  0  0
  3 14  1  0  0  0  0
  3 15  1  0  0  0  0
  4  5  1  0  0  0  0
  4 16  1  0  0  0  0
  4 17  1  0  0  0  0
  5  6  1  0  0  0  0
  5 18  1  0  0  0  0
  5 19  1  0  0  0  0
  6  7  1  0  0  0  0
  6  8  2  0  0  0  0
  7 20  1  0  0  0  0
M  END
$$$$
