
 OpenBabel07202215583D

 27 26  0  0  0  0  0  0  0  0999 V2000
    0.9124   -0.0423    0.0391 C   0  0  0  0  0  0  0  0  0  0  0  0
    2.4296   -0.0402    0.0415 C   0  0  0  0  0  0  0  0  0  0  0  0
    2.9679   -0.9673    1.1219 C   0  0  0  0  0  0  0  0  0  0  0  0
    4.4926   -0.9600    1.1317 C   0  0  0  0  0  0  0  0  0  0  0  0
    5.0012   -1.9023    2.2114 C   0  0  0  0  0  0  0  0  0  0  0  0
    6.5240   -1.9536    2.2428 C   0  0  0  0  0  0  0  0  0  0  0  0
    7.0388   -2.9143    3.3164 C   0  0  0  0  0  0  0  0  0  0  0  0
    6.5824   -4.3507    3.0898 C   0  0  0  0  0  0  0  0  0  0  0  0
    8.4652   -2.8800    3.3169 O   0  0  0  0  0  0  0  0  0  0  0  0
    0.5349    0.6288   -0.7372 H   0  0  0  0  0  0  0  0  0  0  0  0
    0.5218    0.2939    1.0049 H   0  0  0  0  0  0  0  0  0  0  0  0
    0.5249   -1.0474   -0.1563 H   0  0  0  0  0  0  0  0  0  0  0  0
    2.7947    0.9790    0.2117 H   0  0  0  0  0  0  0  0  0  0  0  0
    2.7980   -0.3601   -0.9401 H   0  0  0  0  0  0  0  0  0  0  0  0
    2.6038   -1.9883    0.9487 H   0  0  0  0  0  0  0  0  0  0  0  0
    2.5911   -0.6559    2.1042 H   0  0  0  0  0  0  0  0  0  0  0  0
    4.8657    0.0547    1.3115 H   0  0  0  0  0  0  0  0  0  0  0  0
    4.8707   -1.2816    0.1536 H   0  0  0  0  0  0  0  0  0  0  0  0
    4.5914   -2.8972    2.0091 H   0  0  0  0  0  0  0  0  0  0  0  0
    4.6231   -1.5888    3.1922 H   0  0  0  0  0  0  0  0  0  0  0  0
    6.9292   -0.9504    2.4300 H   0  0  0  0  0  0  0  0  0  0  0  0
    6.9138   -2.2488    1.2600 H   0  0  0  0  0  0  0  0  0  0  0  0
    6.7057   -2.5763    4.3032 H   0  0  0  0  0  0  0  0  0  0  0  0
    6.9092   -4.7113    2.1084 H   0  0  0  0  0  0  0  0  0  0  0  0
    5.4948   -4.4497    3.1511 H   0  0  0  0  0  0  0  0  0  0  0  0
    7.0192   -5.0160    3.8399 H   0  0  0  0  0  0  0  0  0  0  0  0
    8.7703   -3.1765    2.4462 H   0  0  0  0  0  0  0  0  0  0  0  0
  1  2  1  0  0  0  0
  1 10  1  0  0  0  0
  1 11  1  0  0  0  0
  1 12  1  0  0  0  0
  2  3  1  0  0  0  0
  2 13  1  0  0  0  0
  2 14  1  0  0  0  0
  3  4  1  0  0  0  0
  3 15  1  0  0  0  0
  3 16  1  0  0  0  0
  4  5  1  0  0  0  0
  4 17  1  0  0  0  0
  4 18  1  0  0  0  0
  5  6  1  0  0  0  0
  5 19  1  0  0  0  0
  5 20  1  0  0  0  0
  6  7  1  0  0  0  0
  6 21  1  0  0  0  0
  6 22  1  0  0  0  0
  7  8  1  0  0  0  0
  7  9  1  0  0  0  0
  7 23  1  0  0  0  0
  8 24  1  0  0  0  0
  8 25  1  0  0  0  0
  8 26  1  0  0  0  0
  9 27  1  0  0  0  0
M  END
$$$$
