
 OpenBabel07222214433D

 14 13  0  0  0  0  0  0  0  0999 V2000
    0.9903    0.1293   -0.0774 C   0  0  0  0  0  0  0  0  0  0  0  0
    2.4862    0.0666   -0.0215 C   0  0  0  0  0  0  0  0  0  0  0  0
    3.1400   -0.8110    0.7619 C   0  0  0  0  0  0  0  0  0  0  0  0
    2.4637   -1.8081    1.6520 C   0  0  0  0  0  0  0  0  0  0  0  0
    4.6288   -0.8196    0.7696 C   0  0  0  0  0  0  0  0  0  0  0  0
    5.2780   -1.5976    1.4640 O   0  0  0  0  0  0  0  0  0  0  0  0
    0.6550    0.9049   -0.7698 H   0  0  0  0  0  0  0  0  0  0  0  0
    0.5799    0.3626    0.9112 H   0  0  0  0  0  0  0  0  0  0  0  0
    0.5799   -0.8266   -0.4210 H   0  0  0  0  0  0  0  0  0  0  0  0
    3.0245    0.7719   -0.6511 H   0  0  0  0  0  0  0  0  0  0  0  0
    1.3728   -1.7462    1.5967 H   0  0  0  0  0  0  0  0  0  0  0  0
    2.7380   -1.6368    2.6967 H   0  0  0  0  0  0  0  0  0  0  0  0
    2.7380   -2.8267    1.3637 H   0  0  0  0  0  0  0  0  0  0  0  0
    5.1263   -0.0861    0.1148 H   0  0  0  0  0  0  0  0  0  0  0  0
  1  2  1  0  0  0  0
  1  7  1  0  0  0  0
  1  8  1  0  0  0  0
  1  9  1  0  0  0  0
  2  3  2  0  0  0  0
  2 10  1  0  0  0  0
  3  4  1  0  0  0  0
  3  5  1  0  0  0  0
  4 11  1  0  0  0  0
  4 12  1  0  0  0  0
  4 13  1  0  0  0  0
  5  6  2  0  0  0  0
  5 14  1  0  0  0  0
M  END
$$$$
