
 OpenBabel07222214433D

 32 31  0  0  0  0  0  0  0  0999 V2000
    0.9496    0.0925    0.0507 C   0  0  0  0  0  0  0  0  0  0  0  0
    2.4655    0.0907    0.0438 C   0  0  0  0  0  0  0  0  0  0  0  0
    2.9883   -0.2604   -1.3415 C   0  0  0  0  0  0  0  0  0  0  0  0
    4.5081   -0.2631   -1.3525 C   0  0  0  0  0  0  0  0  0  0  0  0
    5.0185   -0.6148   -2.7402 C   0  0  0  0  0  0  0  0  0  0  0  0
    6.5358   -0.6178   -2.7521 C   0  0  0  0  0  0  0  0  0  0  0  0
    7.0506   -0.9695   -4.1398 C   0  0  0  0  0  0  0  0  0  0  0  0
    8.5692   -0.9661   -4.1262 C   0  0  0  0  0  0  0  0  0  0  0  0
    9.1462   -1.3111   -5.4875 C   0  0  0  0  0  0  0  0  0  0  0  0
   10.6559   -1.3293   -5.5595 C   0  0  0  0  0  0  0  0  0  0  0  0
   11.3335   -1.0433   -4.4311 O   0  0  0  0  0  0  0  0  0  0  0  0
   11.2482   -1.5930   -6.6001 O   0  0  0  0  0  0  0  0  0  0  0  0
    0.5756    0.3448    1.0462 H   0  0  0  0  0  0  0  0  0  0  0  0
    0.5609   -0.8928   -0.2259 H   0  0  0  0  0  0  0  0  0  0  0  0
    0.5609    0.8270   -0.6618 H   0  0  0  0  0  0  0  0  0  0  0  0
    2.8367   -0.6343    0.7776 H   0  0  0  0  0  0  0  0  0  0  0  0
    2.8367    1.0777    0.3437 H   0  0  0  0  0  0  0  0  0  0  0  0
    2.6155    0.4640   -2.0764 H   0  0  0  0  0  0  0  0  0  0  0  0
    2.6155   -1.2472   -1.6427 H   0  0  0  0  0  0  0  0  0  0  0  0
    4.8863   -0.9890   -0.6221 H   0  0  0  0  0  0  0  0  0  0  0  0
    4.8863    0.7230   -1.0560 H   0  0  0  0  0  0  0  0  0  0  0  0
    4.6431    0.1110   -3.4719 H   0  0  0  0  0  0  0  0  0  0  0  0
    4.6431   -1.6015   -3.0379 H   0  0  0  0  0  0  0  0  0  0  0  0
    6.9126   -1.3424   -2.0192 H   0  0  0  0  0  0  0  0  0  0  0  0
    6.9126    0.3684   -2.4527 H   0  0  0  0  0  0  0  0  0  0  0  0
    6.6779   -0.2431   -4.8719 H   0  0  0  0  0  0  0  0  0  0  0  0
    6.6779   -1.9569   -4.4376 H   0  0  0  0  0  0  0  0  0  0  0  0
    8.9216   -1.6904   -3.3814 H   0  0  0  0  0  0  0  0  0  0  0  0
    8.9216    0.0256   -3.8163 H   0  0  0  0  0  0  0  0  0  0  0  0
    8.7891   -0.5822   -6.2252 H   0  0  0  0  0  0  0  0  0  0  0  0
    8.7891   -2.3033   -5.7890 H   0  0  0  0  0  0  0  0  0  0  0  0
   10.8171   -0.8406   -3.6313 H   0  0  0  0  0  0  0  0  0  0  0  0
  1  2  1  0  0  0  0
  1 13  1  0  0  0  0
  1 14  1  0  0  0  0
  1 15  1  0  0  0  0
  2  3  1  0  0  0  0
  2 16  1  0  0  0  0
  2 17  1  0  0  0  0
  3  4  1  0  0  0  0
  3 18  1  0  0  0  0
  3 19  1  0  0  0  0
  4  5  1  0  0  0  0
  4 20  1  0  0  0  0
  4 21  1  0  0  0  0
  5  6  1  0  0  0  0
  5 22  1  0  0  0  0
  5 23  1  0  0  0  0
  6  7  1  0  0  0  0
  6 24  1  0  0  0  0
  6 25  1  0  0  0  0
  7  8  1  0  0  0  0
  7 26  1  0  0  0  0
  7 27  1  0  0  0  0
  8  9  1  0  0  0  0
  8 28  1  0  0  0  0
  8 29  1  0  0  0  0
  9 10  1  0  0  0  0
  9 30  1  0  0  0  0
  9 31  1  0  0  0  0
 10 11  1  0  0  0  0
 10 12  2  0  0  0  0
 11 32  1  0  0  0  0
M  END
$$$$
