
 OpenBabel07202215583D

 20 20  0  0  0  0  0  0  0  0999 V2000
    0.9930   -0.0391   -0.0298 C   0  0  0  0  0  0  0  0  0  0  0  0
    2.4159   -0.0404   -0.0775 O   0  0  0  0  0  0  0  0  0  0  0  0
    3.0223    0.3775    1.0794 C   0  0  0  0  0  0  0  0  0  0  0  0
    2.6576   -0.1096    2.3384 C   0  0  0  0  0  0  0  0  0  0  0  0
    3.3423    0.3049    3.4906 C   0  0  0  0  0  0  0  0  0  0  0  0
    2.9102   -0.1683    4.8473 C   0  0  0  0  0  0  0  0  0  0  0  0
    4.4292    1.1773    3.3647 C   0  0  0  0  0  0  0  0  0  0  0  0
    4.8123    1.6540    2.1091 C   0  0  0  0  0  0  0  0  0  0  0  0
    4.1023    1.2585    0.9747 C   0  0  0  0  0  0  0  0  0  0  0  0
    4.4515    1.7517   -0.2540 O   0  0  0  0  0  0  0  0  0  0  0  0
    0.6277   -0.3472   -1.0144 H   0  0  0  0  0  0  0  0  0  0  0  0
    0.6097    0.9661    0.1750 H   0  0  0  0  0  0  0  0  0  0  0  0
    0.6001   -0.7580    0.6952 H   0  0  0  0  0  0  0  0  0  0  0  0
    1.8542   -0.8318    2.4352 H   0  0  0  0  0  0  0  0  0  0  0  0
    2.0552   -0.8492    4.7807 H   0  0  0  0  0  0  0  0  0  0  0  0
    2.6059    0.6879    5.4584 H   0  0  0  0  0  0  0  0  0  0  0  0
    3.7261   -0.6986    5.3474 H   0  0  0  0  0  0  0  0  0  0  0  0
    4.9842    1.4912    4.2467 H   0  0  0  0  0  0  0  0  0  0  0  0
    5.6590    2.3282    2.0361 H   0  0  0  0  0  0  0  0  0  0  0  0
    5.1748    2.3868   -0.1431 H   0  0  0  0  0  0  0  0  0  0  0  0
  1  2  1  0  0  0  0
  1 11  1  0  0  0  0
  1 12  1  0  0  0  0
  1 13  1  0  0  0  0
  2  3  1  0  0  0  0
  3  4  1  0  0  0  0
  3  9  2  0  0  0  0
  4  5  2  0  0  0  0
  4 14  1  0  0  0  0
  5  6  1  0  0  0  0
  5  7  1  0  0  0  0
  6 15  1  0  0  0  0
  6 16  1  0  0  0  0
  6 17  1  0  0  0  0
  7  8  2  0  0  0  0
  7 18  1  0  0  0  0
  8  9  1  0  0  0  0
  8 19  1  0  0  0  0
  9 10  1  0  0  0  0
 10 20  1  0  0  0  0
M  END
$$$$
