
 OpenBabel07202215583D

 29 29  0  0  0  0  0  0  0  0999 V2000
    0.9129   -0.0324   -0.0090 C   0  0  0  0  0  0  0  0  0  0  0  0
    2.4527   -0.0347   -0.1059 C   0  0  0  0  0  0  0  0  0  0  0  0
    2.7540   -0.8730   -1.3624 C   0  0  0  0  0  0  0  0  0  0  0  0
    2.9273    1.4073   -0.3693 C   0  0  0  0  0  0  0  0  0  0  0  0
    3.0559   -0.5861    1.2486 C   0  0  0  0  0  0  0  0  0  0  0  0
    4.5252   -0.1950    1.5101 C   0  0  0  0  0  0  0  0  0  0  0  0
    5.4628   -0.8142    0.4910 C   0  0  0  0  0  0  0  0  0  0  0  0
    5.2693   -2.3189    0.3938 C   0  0  0  0  0  0  0  0  0  0  0  0
    6.2181   -3.0442    0.0639 O   0  0  0  0  0  0  0  0  0  0  0  0
    3.8731   -2.9092    0.5027 C   0  0  0  0  0  0  0  0  0  0  0  0
    2.9490   -2.1158    1.4235 C   0  0  0  0  0  0  0  0  0  0  0  0
    0.4763    0.2982   -0.9588 H   0  0  0  0  0  0  0  0  0  0  0  0
    0.5524    0.6315    0.7810 H   0  0  0  0  0  0  0  0  0  0  0  0
    0.5256   -1.0384    0.1877 H   0  0  0  0  0  0  0  0  0  0  0  0
    2.4540   -0.3671   -2.2827 H   0  0  0  0  0  0  0  0  0  0  0  0
    2.1819   -1.8061   -1.3391 H   0  0  0  0  0  0  0  0  0  0  0  0
    3.8080   -1.1058   -1.4948 H   0  0  0  0  0  0  0  0  0  0  0  0
    2.5270    1.7853   -1.3147 H   0  0  0  0  0  0  0  0  0  0  0  0
    4.0161    1.4756   -0.4578 H   0  0  0  0  0  0  0  0  0  0  0  0
    2.6128    2.0818    0.4336 H   0  0  0  0  0  0  0  0  0  0  0  0
    2.4782   -0.1306    2.0700 H   0  0  0  0  0  0  0  0  0  0  0  0
    4.8237   -0.5260    2.5140 H   0  0  0  0  0  0  0  0  0  0  0  0
    4.6411    0.8952    1.5303 H   0  0  0  0  0  0  0  0  0  0  0  0
    6.5001   -0.6036    0.7661 H   0  0  0  0  0  0  0  0  0  0  0  0
    5.3276   -0.3546   -0.4914 H   0  0  0  0  0  0  0  0  0  0  0  0
    3.9289   -3.9465    0.8451 H   0  0  0  0  0  0  0  0  0  0  0  0
    3.4767   -2.9993   -0.5080 H   0  0  0  0  0  0  0  0  0  0  0  0
    3.2204   -2.3675    2.4588 H   0  0  0  0  0  0  0  0  0  0  0  0
    1.9106   -2.4463    1.3076 H   0  0  0  0  0  0  0  0  0  0  0  0
  1  2  1  0  0  0  0
  1 12  1  0  0  0  0
  1 13  1  0  0  0  0
  1 14  1  0  0  0  0
  2  3  1  0  0  0  0
  2  4  1  0  0  0  0
  2  5  1  0  0  0  0
  3 15  1  0  0  0  0
  3 16  1  0  0  0  0
  3 17  1  0  0  0  0
  4 18  1  0  0  0  0
  4 19  1  0  0  0  0
  4 20  1  0  0  0  0
  5  6  1  0  0  0  0
  5 11  1  0  0  0  0
  5 21  1  0  0  0  0
  6  7  1  0  0  0  0
  6 22  1  0  0  0  0
  6 23  1  0  0  0  0
  7  8  1  0  0  0  0
  7 24  1  0  0  0  0
  7 25  1  0  0  0  0
  8  9  2  0  0  0  0
  8 10  1  0  0  0  0
 10 11  1  0  0  0  0
 10 26  1  0  0  0  0
 10 27  1  0  0  0  0
 11 28  1  0  0  0  0
 11 29  1  0  0  0  0
M  END
$$$$
