
 OpenBabel07222214433D

 19 19  0  0  0  0  0  0  0  0999 V2000
    0.9062   -0.0363   -0.0675 S   0  0  0  0  0  0  0  0  0  0  0  0
    2.7164    0.0262   -0.0868 C   0  0  0  0  0  0  0  0  0  0  0  0
    3.3573   -1.3554   -0.2511 C   0  0  0  0  0  0  0  0  0  0  0  0
    4.8754   -1.3363   -0.2137 C   0  0  0  0  0  0  0  0  0  0  0  0
    5.5769   -2.5531   -0.1706 C   0  0  0  0  0  0  0  0  0  0  0  0
    6.9673   -2.5626   -0.0203 C   0  0  0  0  0  0  0  0  0  0  0  0
    7.6777   -1.3674    0.0348 C   0  0  0  0  0  0  0  0  0  0  0  0
    7.0010   -0.1554   -0.0571 C   0  0  0  0  0  0  0  0  0  0  0  0
    5.6134   -0.1452   -0.1806 C   0  0  0  0  0  0  0  0  0  0  0  0
    0.7269    1.2881    0.0627 H   0  0  0  0  0  0  0  0  0  0  0  0
    3.0445    0.4897    0.8509 H   0  0  0  0  0  0  0  0  0  0  0  0
    3.0121    0.6862   -0.9095 H   0  0  0  0  0  0  0  0  0  0  0  0
    3.0334   -1.8101   -1.1958 H   0  0  0  0  0  0  0  0  0  0  0  0
    3.0146   -2.0032    0.5674 H   0  0  0  0  0  0  0  0  0  0  0  0
    5.0456   -3.4997   -0.2327 H   0  0  0  0  0  0  0  0  0  0  0  0
    7.4973   -3.5088    0.0688 H   0  0  0  0  0  0  0  0  0  0  0  0
    8.7577   -1.3726    0.1495 H   0  0  0  0  0  0  0  0  0  0  0  0
    7.5429    0.7837   -0.0152 H   0  0  0  0  0  0  0  0  0  0  0  0
    5.1300    0.8270   -0.2315 H   0  0  0  0  0  0  0  0  0  0  0  0
  1  2  1  0  0  0  0
  1 10  1  0  0  0  0
  2  3  1  0  0  0  0
  2 11  1  0  0  0  0
  2 12  1  0  0  0  0
  3  4  1  0  0  0  0
  3 13  1  0  0  0  0
  3 14  1  0  0  0  0
  4  5  1  0  0  0  0
  4  9  2  0  0  0  0
  5  6  2  0  0  0  0
  5 15  1  0  0  0  0
  6  7  1  0  0  0  0
  6 16  1  0  0  0  0
  7  8  2  0  0  0  0
  7 17  1  0  0  0  0
  8  9  1  0  0  0  0
  8 18  1  0  0  0  0
  9 19  1  0  0  0  0
M  END
$$$$
