
 OpenBabel07222214433D

 10  9  0  0  0  0  0  0  0  0999 V2000
    1.0118   -0.0419    0.0127 C   0  0  0  0  0  0  0  0  0  0  0  0
    2.8122    0.0606   -0.1398 S   0  0  0  0  0  0  0  0  0  0  0  0
    3.2840   -1.0963    1.1732 C   0  0  0  0  0  0  0  0  0  0  0  0
    5.0862   -1.1654    1.3239 S   0  0  0  0  0  0  0  0  0  0  0  0
    0.5573    0.6288   -0.7217 H   0  0  0  0  0  0  0  0  0  0  0  0
    0.6860    0.2700    1.0089 H   0  0  0  0  0  0  0  0  0  0  0  0
    0.6632   -1.0583   -0.1893 H   0  0  0  0  0  0  0  0  0  0  0  0
    2.9168   -2.0994    0.9350 H   0  0  0  0  0  0  0  0  0  0  0  0
    2.8664   -0.7775    2.1305 H   0  0  0  0  0  0  0  0  0  0  0  0
    5.3223   -1.4820    0.0428 H   0  0  0  0  0  0  0  0  0  0  0  0
  1  2  1  0  0  0  0
  1  5  1  0  0  0  0
  1  6  1  0  0  0  0
  1  7  1  0  0  0  0
  2  3  1  0  0  0  0
  3  4  1  0  0  0  0
  3  8  1  0  0  0  0
  3  9  1  0  0  0  0
  4 10  1  0  0  0  0
M  END
$$$$
