
 OpenBabel07222214433D

 31 30  0  0  1  0  0  0  0  0999 V2000
    1.0129    0.0830    0.0173 C   0  0  0  0  0  0  0  0  0  0  0  0
    2.5402    0.0437    0.0667 C   0  0  1  0  0  0  0  0  0  0  0  0
    3.0407   -0.8971    1.1779 C   0  0  0  0  0  0  0  0  0  0  0  0
    2.5714   -0.4881    2.5648 C   0  0  0  0  0  0  0  0  0  0  0  0
    3.0965   -1.3922    3.5260 O   0  0  0  0  0  0  0  0  0  0  0  0
    3.0658   -0.3847   -1.3151 C   0  0  0  0  0  0  0  0  0  0  0  0
    4.5868   -0.3772   -1.3600 C   0  0  0  0  0  0  0  0  0  0  0  0
    5.1367   -0.7886   -2.6851 C   0  0  0  0  0  0  0  0  0  0  0  0
    6.4624   -0.8795   -2.9165 C   0  0  0  0  0  0  0  0  0  0  0  0
    7.4993   -0.5560   -1.8726 C   0  0  0  0  0  0  0  0  0  0  0  0
    6.9773   -1.3192   -4.2536 C   0  0  0  0  0  0  0  0  0  0  0  0
    0.5888    0.4503    0.9551 H   0  0  0  0  0  0  0  0  0  0  0  0
    0.6076   -0.9162   -0.1749 H   0  0  0  0  0  0  0  0  0  0  0  0
    0.6655    0.7538   -0.7742 H   0  0  0  0  0  0  0  0  0  0  0  0
    2.9060    1.0580    0.2769 H   0  0  0  0  0  0  0  0  0  0  0  0
    4.1361   -0.9187    1.2124 H   0  0  0  0  0  0  0  0  0  0  0  0
    2.7363   -1.9298    0.9636 H   0  0  0  0  0  0  0  0  0  0  0  0
    1.4834   -0.5047    2.6515 H   0  0  0  0  0  0  0  0  0  0  0  0
    2.9286    0.5183    2.8043 H   0  0  0  0  0  0  0  0  0  0  0  0
    2.7486   -2.2738    3.3069 H   0  0  0  0  0  0  0  0  0  0  0  0
    2.6798    0.3001   -2.0818 H   0  0  0  0  0  0  0  0  0  0  0  0
    2.6910   -1.3855   -1.5649 H   0  0  0  0  0  0  0  0  0  0  0  0
    4.9779   -1.0835   -0.6215 H   0  0  0  0  0  0  0  0  0  0  0  0
    4.9433    0.6288   -1.1071 H   0  0  0  0  0  0  0  0  0  0  0  0
    4.4295   -1.0454   -3.4694 H   0  0  0  0  0  0  0  0  0  0  0  0
    7.0693   -0.2498   -0.9134 H   0  0  0  0  0  0  0  0  0  0  0  0
    8.1315    0.2704   -2.2095 H   0  0  0  0  0  0  0  0  0  0  0  0
    8.1234   -1.4311   -1.6695 H   0  0  0  0  0  0  0  0  0  0  0  0
    6.1633   -1.5449   -4.9516 H   0  0  0  0  0  0  0  0  0  0  0  0
    7.5840   -2.2240   -4.1493 H   0  0  0  0  0  0  0  0  0  0  0  0
    7.5889   -0.5298   -4.7006 H   0  0  0  0  0  0  0  0  0  0  0  0
  1  2  1  0  0  0  0
  1 12  1  0  0  0  0
  1 13  1  0  0  0  0
  1 14  1  0  0  0  0
  2  3  1  0  0  0  0
  2  6  1  0  0  0  0
  2 15  1  1  0  0  0
  3  4  1  0  0  0  0
  3 16  1  0  0  0  0
  3 17  1  0  0  0  0
  4  5  1  0  0  0  0
  4 18  1  0  0  0  0
  4 19  1  0  0  0  0
  5 20  1  0  0  0  0
  6  7  1  0  0  0  0
  6 21  1  0  0  0  0
  6 22  1  0  0  0  0
  7  8  1  0  0  0  0
  7 23  1  0  0  0  0
  7 24  1  0  0  0  0
  8  9  2  0  0  0  0
  8 25  1  0  0  0  0
  9 10  1  0  0  0  0
  9 11  1  0  0  0  0
 10 26  1  0  0  0  0
 10 27  1  0  0  0  0
 10 28  1  0  0  0  0
 11 29  1  0  0  0  0
 11 30  1  0  0  0  0
 11 31  1  0  0  0  0
M  END
$$$$
