
 OpenBabel07122215493D

 25 24  0  0  0  0  0  0  0  0999 V2000
    0.8830   -0.0202   -0.0422 C   0  0  0  0  0  0  0  0  0  0  0  0
    2.3987   -0.0199   -0.0431 C   0  0  0  0  0  0  0  0  0  0  0  0
    2.9335   -0.3835    1.3320 C   0  0  0  0  0  0  0  0  0  0  0  0
    4.4575   -0.3817    1.3252 C   0  0  0  0  0  0  0  0  0  0  0  0
    4.9594   -0.7471    2.7072 C   0  0  0  0  0  0  0  0  0  0  0  0
    6.4738   -0.7690    2.7900 C   0  0  0  0  0  0  0  0  0  0  0  0
    7.0018   -1.1325    4.1648 C   0  0  0  0  0  0  0  0  0  0  0  0
    6.0552   -1.4335    5.3031 C   0  0  0  0  0  0  0  0  0  0  0  0
    8.2231   -1.1829    4.3557 O   0  0  0  0  0  0  0  0  0  0  0  0
    0.5059    0.2421   -1.0339 H   0  0  0  0  0  0  0  0  0  0  0  0
    0.4958    0.7068    0.6790 H   0  0  0  0  0  0  0  0  0  0  0  0
    0.4958   -1.0085    0.2255 H   0  0  0  0  0  0  0  0  0  0  0  0
    2.7674    0.9706   -0.3332 H   0  0  0  0  0  0  0  0  0  0  0  0
    2.7674   -0.7376   -0.7848 H   0  0  0  0  0  0  0  0  0  0  0  0
    2.5634   -1.3736    1.6285 H   0  0  0  0  0  0  0  0  0  0  0  0
    2.5634    0.3307    2.0791 H   0  0  0  0  0  0  0  0  0  0  0  0
    4.8316    0.6088    1.0423 H   0  0  0  0  0  0  0  0  0  0  0  0
    4.8316   -1.1030    0.5898 H   0  0  0  0  0  0  0  0  0  0  0  0
    4.5638   -1.7352    2.9743 H   0  0  0  0  0  0  0  0  0  0  0  0
    4.5638   -0.0201    3.4278 H   0  0  0  0  0  0  0  0  0  0  0  0
    6.8723    0.2185    2.5280 H   0  0  0  0  0  0  0  0  0  0  0  0
    6.8723   -1.4980    2.0742 H   0  0  0  0  0  0  0  0  0  0  0  0
    5.0019   -1.3628    5.0359 H   0  0  0  0  0  0  0  0  0  0  0  0
    6.2291   -0.7161    6.1079 H   0  0  0  0  0  0  0  0  0  0  0  0
    6.2291   -2.4548    5.6482 H   0  0  0  0  0  0  0  0  0  0  0  0
  1  2  1  0  0  0  0
  1 10  1  0  0  0  0
  1 11  1  0  0  0  0
  1 12  1  0  0  0  0
  2  3  1  0  0  0  0
  2 13  1  0  0  0  0
  2 14  1  0  0  0  0
  3  4  1  0  0  0  0
  3 15  1  0  0  0  0
  3 16  1  0  0  0  0
  4  5  1  0  0  0  0
  4 17  1  0  0  0  0
  4 18  1  0  0  0  0
  5  6  1  0  0  0  0
  5 19  1  0  0  0  0
  5 20  1  0  0  0  0
  6  7  1  0  0  0  0
  6 21  1  0  0  0  0
  6 22  1  0  0  0  0
  7  8  1  0  0  0  0
  7  9  2  0  0  0  0
  8 23  1  0  0  0  0
  8 24  1  0  0  0  0
  8 25  1  0  0  0  0
M  END
$$$$
