
 OpenBabel07222214433D

 15 14  0  0  0  0  0  0  0  0999 V2000
    1.0742    0.0452    0.0559 C   0  0  0  0  0  0  0  0  0  0  0  0
    2.6072    0.0494    0.0916 C   0  0  0  0  0  0  0  0  0  0  0  0
    3.0773    0.8637    1.2999 C   0  0  0  0  0  0  0  0  0  0  0  0
    3.1242   -1.3990    0.1097 C   0  0  0  0  0  0  0  0  0  0  0  0
    4.9397   -1.5381    0.0925 S   0  0  0  0  0  0  0  0  0  0  0  0
    0.6826    1.0671    0.0036 H   0  0  0  0  0  0  0  0  0  0  0  0
    0.6586   -0.4285    0.9517 H   0  0  0  0  0  0  0  0  0  0  0  0
    0.7023   -0.4994   -0.8185 H   0  0  0  0  0  0  0  0  0  0  0  0
    2.9606    0.5447   -0.8213 H   0  0  0  0  0  0  0  0  0  0  0  0
    2.7423    0.4067    2.2365 H   0  0  0  0  0  0  0  0  0  0  0  0
    2.6762    1.8824    1.2578 H   0  0  0  0  0  0  0  0  0  0  0  0
    4.1673    0.9499    1.3332 H   0  0  0  0  0  0  0  0  0  0  0  0
    2.7496   -1.9381   -0.7677 H   0  0  0  0  0  0  0  0  0  0  0  0
    2.7579   -1.9239    0.9978 H   0  0  0  0  0  0  0  0  0  0  0  0
    5.1498   -0.8012   -1.0076 H   0  0  0  0  0  0  0  0  0  0  0  0
  1  2  1  0  0  0  0
  1  6  1  0  0  0  0
  1  7  1  0  0  0  0
  1  8  1  0  0  0  0
  2  3  1  0  0  0  0
  2  4  1  0  0  0  0
  2  9  1  0  0  0  0
  3 10  1  0  0  0  0
  3 11  1  0  0  0  0
  3 12  1  0  0  0  0
  4  5  1  0  0  0  0
  4 13  1  0  0  0  0
  4 14  1  0  0  0  0
  5 15  1  0  0  0  0
M  END
$$$$
