
 OpenBabel07202215583D

 30 29  0  0  0  0  0  0  0  0999 V2000
    0.9412   -0.0665    0.1048 C   0  0  0  0  0  0  0  0  0  0  0  0
    2.4582   -0.0631    0.0926 C   0  0  0  0  0  0  0  0  0  0  0  0
    2.9782    0.2198   -1.3108 C   0  0  0  0  0  0  0  0  0  0  0  0
    4.4981    0.2311   -1.3322 C   0  0  0  0  0  0  0  0  0  0  0  0
    5.0058    0.5238   -2.7391 C   0  0  0  0  0  0  0  0  0  0  0  0
    6.5247    0.5194   -2.7423 C   0  0  0  0  0  0  0  0  0  0  0  0
    7.0835    0.7783   -4.1356 C   0  0  0  0  0  0  0  0  0  0  0  0
    8.6127    0.7568   -4.1453 C   0  0  0  0  0  0  0  0  0  0  0  0
    9.1854   -0.5877   -3.7125 C   0  0  0  0  0  0  0  0  0  0  0  0
    9.0669    1.0463   -5.4664 O   0  0  0  0  0  0  0  0  0  0  0  0
    0.5699   -0.2677    1.1131 H   0  0  0  0  0  0  0  0  0  0  0  0
    0.5501   -0.8370   -0.5672 H   0  0  0  0  0  0  0  0  0  0  0  0
    0.5493    0.9027   -0.2201 H   0  0  0  0  0  0  0  0  0  0  0  0
    2.8307   -1.0333    0.4417 H   0  0  0  0  0  0  0  0  0  0  0  0
    2.8293    0.6977    0.7893 H   0  0  0  0  0  0  0  0  0  0  0  0
    2.6000    1.1881   -1.6603 H   0  0  0  0  0  0  0  0  0  0  0  0
    2.6073   -0.5435   -2.0059 H   0  0  0  0  0  0  0  0  0  0  0  0
    4.8817   -0.7394   -0.9923 H   0  0  0  0  0  0  0  0  0  0  0  0
    4.8780    0.9887   -0.6355 H   0  0  0  0  0  0  0  0  0  0  0  0
    4.6303    1.4943   -3.0834 H   0  0  0  0  0  0  0  0  0  0  0  0
    4.6321   -0.2386   -3.4337 H   0  0  0  0  0  0  0  0  0  0  0  0
    6.8578   -0.4560   -2.3733 H   0  0  0  0  0  0  0  0  0  0  0  0
    6.9037    1.2773   -2.0460 H   0  0  0  0  0  0  0  0  0  0  0  0
    6.7317    1.7502   -4.5062 H   0  0  0  0  0  0  0  0  0  0  0  0
    6.6945    0.0358   -4.8444 H   0  0  0  0  0  0  0  0  0  0  0  0
    8.9959    1.5455   -3.4896 H   0  0  0  0  0  0  0  0  0  0  0  0
    8.8171   -1.3923   -4.3583 H   0  0  0  0  0  0  0  0  0  0  0  0
    8.9281   -0.8291   -2.6771 H   0  0  0  0  0  0  0  0  0  0  0  0
   10.2762   -0.5842   -3.7911 H   0  0  0  0  0  0  0  0  0  0  0  0
    8.7300    0.3542   -6.0549 H   0  0  0  0  0  0  0  0  0  0  0  0
  1  2  1  0  0  0  0
  1 11  1  0  0  0  0
  1 12  1  0  0  0  0
  1 13  1  0  0  0  0
  2  3  1  0  0  0  0
  2 14  1  0  0  0  0
  2 15  1  0  0  0  0
  3  4  1  0  0  0  0
  3 16  1  0  0  0  0
  3 17  1  0  0  0  0
  4  5  1  0  0  0  0
  4 18  1  0  0  0  0
  4 19  1  0  0  0  0
  5  6  1  0  0  0  0
  5 20  1  0  0  0  0
  5 21  1  0  0  0  0
  6  7  1  0  0  0  0
  6 22  1  0  0  0  0
  6 23  1  0  0  0  0
  7  8  1  0  0  0  0
  7 24  1  0  0  0  0
  7 25  1  0  0  0  0
  8  9  1  0  0  0  0
  8 10  1  0  0  0  0
  8 26  1  0  0  0  0
  9 27  1  0  0  0  0
  9 28  1  0  0  0  0
  9 29  1  0  0  0  0
 10 30  1  0  0  0  0
M  END
$$$$
