
 OpenBabel07202215583D

 25 24  0  0  0  0  0  0  0  0999 V2000
    0.8944   -0.0484   -0.0243 C   0  0  0  0  0  0  0  0  0  0  0  0
    2.4108   -0.0432   -0.0327 C   0  0  0  0  0  0  0  0  0  0  0  0
    2.9353    0.6116   -1.3043 C   0  0  0  0  0  0  0  0  0  0  0  0
    4.4568    0.6146   -1.3142 C   0  0  0  0  0  0  0  0  0  0  0  0
    4.9826    1.2664   -2.5900 C   0  0  0  0  0  0  0  0  0  0  0  0
    6.5102    1.2745   -2.6099 C   0  0  0  0  0  0  0  0  0  0  0  0
    6.9996   -0.0602   -2.5322 O   0  0  0  0  0  0  0  0  0  0  0  0
    7.0442    1.9084   -3.8591 C   0  0  0  0  0  0  0  0  0  0  0  0
    8.3557    2.0390   -4.1057 C   0  0  0  0  0  0  0  0  0  0  0  0
    0.5216   -0.5182    0.8896 H   0  0  0  0  0  0  0  0  0  0  0  0
    0.5048   -0.6051   -0.8826 H   0  0  0  0  0  0  0  0  0  0  0  0
    0.5040    0.9731   -0.0719 H   0  0  0  0  0  0  0  0  0  0  0  0
    2.7818   -1.0725    0.0382 H   0  0  0  0  0  0  0  0  0  0  0  0
    2.7817    0.4974    0.8460 H   0  0  0  0  0  0  0  0  0  0  0  0
    2.5627    1.6407   -1.3758 H   0  0  0  0  0  0  0  0  0  0  0  0
    2.5621    0.0700   -2.1823 H   0  0  0  0  0  0  0  0  0  0  0  0
    4.8223   -0.4165   -1.2384 H   0  0  0  0  0  0  0  0  0  0  0  0
    4.8347    1.1580   -0.4396 H   0  0  0  0  0  0  0  0  0  0  0  0
    4.6014    2.2930   -2.6643 H   0  0  0  0  0  0  0  0  0  0  0  0
    4.5967    0.7108   -3.4550 H   0  0  0  0  0  0  0  0  0  0  0  0
    6.8798    1.8210   -1.7343 H   0  0  0  0  0  0  0  0  0  0  0  0
    6.6750   -0.5292   -3.3191 H   0  0  0  0  0  0  0  0  0  0  0  0
    6.3317    2.2982   -4.5815 H   0  0  0  0  0  0  0  0  0  0  0  0
    9.0897    1.6691   -3.3955 H   0  0  0  0  0  0  0  0  0  0  0  0
    8.7126    2.5137   -5.0117 H   0  0  0  0  0  0  0  0  0  0  0  0
  1  2  1  0  0  0  0
  1 10  1  0  0  0  0
  1 11  1  0  0  0  0
  1 12  1  0  0  0  0
  2  3  1  0  0  0  0
  2 13  1  0  0  0  0
  2 14  1  0  0  0  0
  3  4  1  0  0  0  0
  3 15  1  0  0  0  0
  3 16  1  0  0  0  0
  4  5  1  0  0  0  0
  4 17  1  0  0  0  0
  4 18  1  0  0  0  0
  5  6  1  0  0  0  0
  5 19  1  0  0  0  0
  5 20  1  0  0  0  0
  6  7  1  0  0  0  0
  6  8  1  0  0  0  0
  6 21  1  0  0  0  0
  7 22  1  0  0  0  0
  8  9  2  0  0  0  0
  8 23  1  0  0  0  0
  9 24  1  0  0  0  0
  9 25  1  0  0  0  0
M  END
$$$$
