
 OpenBabel07202215583D

 29 28  0  0  0  0  0  0  0  0999 V2000
    1.0122   -0.0873    0.0088 C   0  0  0  0  0  0  0  0  0  0  0  0
    2.5291   -0.0904    0.0162 C   0  0  0  0  0  0  0  0  0  0  0  0
    3.0572   -0.6519    1.3303 C   0  0  0  0  0  0  0  0  0  0  0  0
    4.5809   -0.6563    1.3406 C   0  0  0  0  0  0  0  0  0  0  0  0
    5.1016   -1.2182    2.6556 C   0  0  0  0  0  0  0  0  0  0  0  0
    6.6257   -1.2296    2.6824 C   0  0  0  0  0  0  0  0  0  0  0  0
    7.1153   -1.7955    4.0068 C   0  0  0  0  0  0  0  0  0  0  0  0
    8.5486   -1.8024    4.0229 O   0  0  0  0  0  0  0  0  0  0  0  0
    9.2418   -2.2593    5.0923 C   0  0  0  0  0  0  0  0  0  0  0  0
    8.4872   -2.7707    6.2892 C   0  0  0  0  0  0  0  0  0  0  0  0
   10.4717   -2.2566    5.0860 O   0  0  0  0  0  0  0  0  0  0  0  0
    0.6381    0.3164   -0.9359 H   0  0  0  0  0  0  0  0  0  0  0  0
    0.6222    0.5284    0.8256 H   0  0  0  0  0  0  0  0  0  0  0  0
    0.6222   -1.1031    0.1285 H   0  0  0  0  0  0  0  0  0  0  0  0
    2.8987    0.9315   -0.1283 H   0  0  0  0  0  0  0  0  0  0  0  0
    2.8987   -0.6924   -0.8221 H   0  0  0  0  0  0  0  0  0  0  0  0
    2.6830   -1.6732    1.4747 H   0  0  0  0  0  0  0  0  0  0  0  0
    2.6830   -0.0504    2.1681 H   0  0  0  0  0  0  0  0  0  0  0  0
    4.9555    0.3647    1.1996 H   0  0  0  0  0  0  0  0  0  0  0  0
    4.9555   -1.2601    0.5054 H   0  0  0  0  0  0  0  0  0  0  0  0
    4.7211   -2.2377    2.7970 H   0  0  0  0  0  0  0  0  0  0  0  0
    4.7211   -0.6156    3.4900 H   0  0  0  0  0  0  0  0  0  0  0  0
    7.0191   -0.2155    2.5406 H   0  0  0  0  0  0  0  0  0  0  0  0
    7.0191   -1.8281    1.8515 H   0  0  0  0  0  0  0  0  0  0  0  0
    6.7494   -2.8221    4.1170 H   0  0  0  0  0  0  0  0  0  0  0  0
    6.7494   -1.1655    4.8248 H   0  0  0  0  0  0  0  0  0  0  0  0
    7.4034   -2.7312    6.1967 H   0  0  0  0  0  0  0  0  0  0  0  0
    8.7600   -2.1690    7.1605 H   0  0  0  0  0  0  0  0  0  0  0  0
    8.7600   -3.8163    6.4566 H   0  0  0  0  0  0  0  0  0  0  0  0
  1  2  1  0  0  0  0
  1 12  1  0  0  0  0
  1 13  1  0  0  0  0
  1 14  1  0  0  0  0
  2  3  1  0  0  0  0
  2 15  1  0  0  0  0
  2 16  1  0  0  0  0
  3  4  1  0  0  0  0
  3 17  1  0  0  0  0
  3 18  1  0  0  0  0
  4  5  1  0  0  0  0
  4 19  1  0  0  0  0
  4 20  1  0  0  0  0
  5  6  1  0  0  0  0
  5 21  1  0  0  0  0
  5 22  1  0  0  0  0
  6  7  1  0  0  0  0
  6 23  1  0  0  0  0
  6 24  1  0  0  0  0
  7  8  1  0  0  0  0
  7 25  1  0  0  0  0
  7 26  1  0  0  0  0
  8  9  1  0  0  0  0
  9 10  1  0  0  0  0
  9 11  2  0  0  0  0
 10 27  1  0  0  0  0
 10 28  1  0  0  0  0
 10 29  1  0  0  0  0
M  END
$$$$
