
 OpenBabel07202215583D

 32 31  0  0  0  0  0  0  0  0999 V2000
    1.0636   -0.0424    0.0544 C   0  0  0  0  0  0  0  0  0  0  0  0
    2.5802   -0.0423    0.0461 C   0  0  0  0  0  0  0  0  0  0  0  0
    3.1047   -0.0327   -1.3837 C   0  0  0  0  0  0  0  0  0  0  0  0
    4.6263   -0.0326   -1.3984 C   0  0  0  0  0  0  0  0  0  0  0  0
    5.1415   -0.0230   -2.8318 C   0  0  0  0  0  0  0  0  0  0  0  0
    6.6621   -0.0229   -2.8467 C   0  0  0  0  0  0  0  0  0  0  0  0
    7.1957   -0.0133   -4.2740 C   0  0  0  0  0  0  0  0  0  0  0  0
    8.7165   -0.0134   -4.2555 C   0  0  0  0  0  0  0  0  0  0  0  0
    9.2104   -0.0044   -5.6009 O   0  0  0  0  0  0  0  0  0  0  0  0
   10.5378   -0.0026   -5.8666 C   0  0  0  0  0  0  0  0  0  0  0  0
   11.5133   -0.0103   -4.7211 C   0  0  0  0  0  0  0  0  0  0  0  0
   10.9414    0.0052   -7.0284 O   0  0  0  0  0  0  0  0  0  0  0  0
    0.6897   -0.0493    1.0816 H   0  0  0  0  0  0  0  0  0  0  0  0
    0.6740   -0.9260   -0.4611 H   0  0  0  0  0  0  0  0  0  0  0  0
    0.6740    0.8481   -0.4492 H   0  0  0  0  0  0  0  0  0  0  0  0
    2.9506   -0.9288    0.5740 H   0  0  0  0  0  0  0  0  0  0  0  0
    2.9506    0.8371    0.5859 H   0  0  0  0  0  0  0  0  0  0  0  0
    2.7308    0.8535   -1.9113 H   0  0  0  0  0  0  0  0  0  0  0  0
    2.7308   -0.9117   -1.9231 H   0  0  0  0  0  0  0  0  0  0  0  0
    5.0032   -0.9190   -0.8734 H   0  0  0  0  0  0  0  0  0  0  0  0
    5.0032    0.8467   -0.8615 H   0  0  0  0  0  0  0  0  0  0  0  0
    4.7646    0.8638   -3.3555 H   0  0  0  0  0  0  0  0  0  0  0  0
    4.7646   -0.9027   -3.3673 H   0  0  0  0  0  0  0  0  0  0  0  0
    7.0351   -0.9085   -2.3170 H   0  0  0  0  0  0  0  0  0  0  0  0
    7.0351    0.8556   -2.3052 H   0  0  0  0  0  0  0  0  0  0  0  0
    6.8277    0.8672   -4.8150 H   0  0  0  0  0  0  0  0  0  0  0  0
    6.8277   -0.8864   -4.8268 H   0  0  0  0  0  0  0  0  0  0  0  0
    9.0700   -0.9176   -3.7482 H   0  0  0  0  0  0  0  0  0  0  0  0
    9.0700    0.8838   -3.7361 H   0  0  0  0  0  0  0  0  0  0  0  0
   11.0571   -0.0169   -3.7329 H   0  0  0  0  0  0  0  0  0  0  0  0
   12.1366    0.8858   -4.7840 H   0  0  0  0  0  0  0  0  0  0  0  0
   12.1367   -0.9055   -4.7960 H   0  0  0  0  0  0  0  0  0  0  0  0
  1  2  1  0  0  0  0
  1 13  1  0  0  0  0
  1 14  1  0  0  0  0
  1 15  1  0  0  0  0
  2  3  1  0  0  0  0
  2 16  1  0  0  0  0
  2 17  1  0  0  0  0
  3  4  1  0  0  0  0
  3 18  1  0  0  0  0
  3 19  1  0  0  0  0
  4  5  1  0  0  0  0
  4 20  1  0  0  0  0
  4 21  1  0  0  0  0
  5  6  1  0  0  0  0
  5 22  1  0  0  0  0
  5 23  1  0  0  0  0
  6  7  1  0  0  0  0
  6 24  1  0  0  0  0
  6 25  1  0  0  0  0
  7  8  1  0  0  0  0
  7 26  1  0  0  0  0
  7 27  1  0  0  0  0
  8  9  1  0  0  0  0
  8 28  1  0  0  0  0
  8 29  1  0  0  0  0
  9 10  1  0  0  0  0
 10 11  1  0  0  0  0
 10 12  2  0  0  0  0
 11 30  1  0  0  0  0
 11 31  1  0  0  0  0
 11 32  1  0  0  0  0
M  END
$$$$
