
 OpenBabel07202215583D

 27 26  0  0  0  0  0  0  0  0999 V2000
    1.0124   -0.0115   -0.0679 C   0  0  0  0  0  0  0  0  0  0  0  0
    2.5294   -0.0211   -0.0757 C   0  0  0  0  0  0  0  0  0  0  0  0
    3.0571   -1.2224   -0.8518 C   0  0  0  0  0  0  0  0  0  0  0  0
    4.5798   -1.2316   -0.8552 C   0  0  0  0  0  0  0  0  0  0  0  0
    5.1119   -2.4376   -1.6259 C   0  0  0  0  0  0  0  0  0  0  0  0
    6.6397   -2.4569   -1.6289 C   0  0  0  0  0  0  0  0  0  0  0  0
    7.1191   -2.5121   -0.2858 O   0  0  0  0  0  0  0  0  0  0  0  0
    7.1699   -3.6575   -2.4119 C   0  0  0  0  0  0  0  0  0  0  0  0
    8.6902   -3.6772   -2.4327 C   0  0  0  0  0  0  0  0  0  0  0  0
    0.6413    0.8531    0.4893 H   0  0  0  0  0  0  0  0  0  0  0  0
    0.6211   -0.9186    0.4036 H   0  0  0  0  0  0  0  0  0  0  0  0
    0.6197    0.0419   -1.0883 H   0  0  0  0  0  0  0  0  0  0  0  0
    2.9000   -0.0505    0.9557 H   0  0  0  0  0  0  0  0  0  0  0  0
    2.8994    0.9068   -0.5274 H   0  0  0  0  0  0  0  0  0  0  0  0
    2.6851   -1.1934   -1.8831 H   0  0  0  0  0  0  0  0  0  0  0  0
    2.6844   -2.1494   -0.3987 H   0  0  0  0  0  0  0  0  0  0  0  0
    4.9438   -1.2547    0.1790 H   0  0  0  0  0  0  0  0  0  0  0  0
    4.9572   -0.3080   -1.3107 H   0  0  0  0  0  0  0  0  0  0  0  0
    4.7373   -2.4133   -2.6567 H   0  0  0  0  0  0  0  0  0  0  0  0
    4.7289   -3.3534   -1.1581 H   0  0  0  0  0  0  0  0  0  0  0  0
    7.0169   -1.5295   -2.0744 H   0  0  0  0  0  0  0  0  0  0  0  0
    6.7735   -3.3223    0.1205 H   0  0  0  0  0  0  0  0  0  0  0  0
    6.7912   -3.6302   -3.4404 H   0  0  0  0  0  0  0  0  0  0  0  0
    6.8160   -4.5890   -1.9538 H   0  0  0  0  0  0  0  0  0  0  0  0
    9.0819   -2.7675   -2.8988 H   0  0  0  0  0  0  0  0  0  0  0  0
    9.0504   -4.5388   -3.0014 H   0  0  0  0  0  0  0  0  0  0  0  0
    9.0984   -3.7462   -1.4194 H   0  0  0  0  0  0  0  0  0  0  0  0
  1  2  1  0  0  0  0
  1 10  1  0  0  0  0
  1 11  1  0  0  0  0
  1 12  1  0  0  0  0
  2  3  1  0  0  0  0
  2 13  1  0  0  0  0
  2 14  1  0  0  0  0
  3  4  1  0  0  0  0
  3 15  1  0  0  0  0
  3 16  1  0  0  0  0
  4  5  1  0  0  0  0
  4 17  1  0  0  0  0
  4 18  1  0  0  0  0
  5  6  1  0  0  0  0
  5 19  1  0  0  0  0
  5 20  1  0  0  0  0
  6  7  1  0  0  0  0
  6  8  1  0  0  0  0
  6 21  1  0  0  0  0
  7 22  1  0  0  0  0
  8  9  1  0  0  0  0
  8 23  1  0  0  0  0
  8 24  1  0  0  0  0
  9 25  1  0  0  0  0
  9 26  1  0  0  0  0
  9 27  1  0  0  0  0
M  END
$$$$
