
 OpenBabel07202215583D

 27 28  0  0  0  0  0  0  0  0999 V2000
    0.9266   -0.0688    0.1317 C   0  0  0  0  0  0  0  0  0  0  0  0
    2.4667   -0.0533    0.1349 C   0  0  0  0  0  0  0  0  0  0  0  0
    2.9039   -0.0559    1.6098 C   0  0  0  0  0  0  0  0  0  0  0  0
    3.1169   -1.1611   -0.7330 C   0  0  0  0  0  0  0  0  0  0  0  0
    2.6116   -0.8131   -2.1548 C   0  0  0  0  0  0  0  0  0  0  0  0
    2.6002    0.7365   -2.1537 C   0  0  0  0  0  0  0  0  0  0  0  0
    3.0751    1.0857   -0.7226 C   0  0  0  0  0  0  0  0  0  0  0  0
    2.7826    2.4956   -0.2638 C   0  0  0  0  0  0  0  0  0  0  0  0
    4.5475    0.6705   -0.7066 C   0  0  0  0  0  0  0  0  0  0  0  0
    5.5094    1.4264   -0.7179 O   0  0  0  0  0  0  0  0  0  0  0  0
    4.6335   -0.8438   -0.6941 C   0  0  0  0  0  0  0  0  0  0  0  0
    0.5523   -0.9290    0.6944 H   0  0  0  0  0  0  0  0  0  0  0  0
    0.4775   -0.1253   -0.8620 H   0  0  0  0  0  0  0  0  0  0  0  0
    0.5352    0.8420    0.5967 H   0  0  0  0  0  0  0  0  0  0  0  0
    2.4958   -0.9339    2.1221 H   0  0  0  0  0  0  0  0  0  0  0  0
    2.5252    0.8342    2.1240 H   0  0  0  0  0  0  0  0  0  0  0  0
    3.9865   -0.0702    1.7571 H   0  0  0  0  0  0  0  0  0  0  0  0
    2.8864   -2.1844   -0.4270 H   0  0  0  0  0  0  0  0  0  0  0  0
    1.6051   -1.2117   -2.3232 H   0  0  0  0  0  0  0  0  0  0  0  0
    3.2535   -1.2204   -2.9420 H   0  0  0  0  0  0  0  0  0  0  0  0
    1.5905    1.1152   -2.3479 H   0  0  0  0  0  0  0  0  0  0  0  0
    3.2608    1.1368   -2.9301 H   0  0  0  0  0  0  0  0  0  0  0  0
    1.7060    2.6953   -0.2720 H   0  0  0  0  0  0  0  0  0  0  0  0
    3.2653    3.2371   -0.9070 H   0  0  0  0  0  0  0  0  0  0  0  0
    3.1439    2.6664    0.7560 H   0  0  0  0  0  0  0  0  0  0  0  0
    5.1086   -1.1932    0.2251 H   0  0  0  0  0  0  0  0  0  0  0  0
    5.1654   -1.2198   -1.5714 H   0  0  0  0  0  0  0  0  0  0  0  0
  1  2  1  0  0  0  0
  1 12  1  0  0  0  0
  1 13  1  0  0  0  0
  1 14  1  0  0  0  0
  2  3  1  0  0  0  0
  2  4  1  0  0  0  0
  2  7  1  0  0  0  0
  3 15  1  0  0  0  0
  3 16  1  0  0  0  0
  3 17  1  0  0  0  0
  4  5  1  0  0  0  0
  4 11  1  0  0  0  0
  4 18  1  0  0  0  0
  5  6  1  0  0  0  0
  5 19  1  0  0  0  0
  5 20  1  0  0  0  0
  6  7  1  0  0  0  0
  6 21  1  0  0  0  0
  6 22  1  0  0  0  0
  7  8  1  0  0  0  0
  7  9  1  0  0  0  0
  8 23  1  0  0  0  0
  8 24  1  0  0  0  0
  8 25  1  0  0  0  0
  9 10  2  0  0  0  0
  9 11  1  0  0  0  0
 11 26  1  0  0  0  0
 11 27  1  0  0  0  0
M  END
$$$$
