
 OpenBabel07222214443D

 25 25  0  0  0  0  0  0  0  0999 V2000
    1.0394   -0.0042   -0.1474 C   0  0  0  0  0  0  0  0  0  0  0  0
    2.4576    0.1051   -0.1756 O   0  0  0  0  0  0  0  0  0  0  0  0
    3.0995   -0.8897   -0.8621 C   0  0  0  0  0  0  0  0  0  0  0  0
    4.1628   -1.5937   -0.2782 C   0  0  0  0  0  0  0  0  0  0  0  0
    4.9679   -2.4313   -1.0954 C   0  0  0  0  0  0  0  0  0  0  0  0
    4.6440   -2.6769   -2.4501 C   0  0  0  0  0  0  0  0  0  0  0  0
    3.5675   -1.9496   -2.9807 C   0  0  0  0  0  0  0  0  0  0  0  0
    2.8132   -1.0712   -2.2083 C   0  0  0  0  0  0  0  0  0  0  0  0
    5.3896   -3.7389   -3.2770 C   0  0  0  0  0  0  0  0  0  0  0  0
    4.7030   -3.9423   -4.9681 S   0  0  0  0  0  0  0  0  0  0  0  0
    5.6142   -5.1582   -5.6721 C   0  0  0  0  0  0  0  0  0  0  0  0
    6.1726   -5.9850   -6.2721 N   0  0  0  0  0  0  0  0  0  0  0  0
    4.4890   -1.5838    1.0621 O   0  0  0  0  0  0  0  0  0  0  0  0
    3.5978   -0.8877    1.9410 C   0  0  0  0  0  0  0  0  0  0  0  0
    0.6798    0.7272    0.5838 H   0  0  0  0  0  0  0  0  0  0  0  0
    0.7138   -0.9963    0.1844 H   0  0  0  0  0  0  0  0  0  0  0  0
    0.6073    0.2509   -1.1167 H   0  0  0  0  0  0  0  0  0  0  0  0
    5.8542   -2.8906   -0.6571 H   0  0  0  0  0  0  0  0  0  0  0  0
    3.2808   -2.0260   -4.0247 H   0  0  0  0  0  0  0  0  0  0  0  0
    2.0129   -0.5197   -2.6882 H   0  0  0  0  0  0  0  0  0  0  0  0
    5.2950   -4.6974   -2.7508 H   0  0  0  0  0  0  0  0  0  0  0  0
    6.4522   -3.4786   -3.3372 H   0  0  0  0  0  0  0  0  0  0  0  0
    3.8997   -1.0576    2.9778 H   0  0  0  0  0  0  0  0  0  0  0  0
    2.5643   -1.2502    1.8580 H   0  0  0  0  0  0  0  0  0  0  0  0
    3.6650    0.1925    1.7730 H   0  0  0  0  0  0  0  0  0  0  0  0
  1  2  1  0  0  0  0
  1 15  1  0  0  0  0
  1 16  1  0  0  0  0
  1 17  1  0  0  0  0
  2  3  1  0  0  0  0
  3  4  2  0  0  0  0
  3  8  1  0  0  0  0
  4  5  1  0  0  0  0
  4 13  1  0  0  0  0
  5  6  2  0  0  0  0
  5 18  1  0  0  0  0
  6  7  1  0  0  0  0
  6  9  1  0  0  0  0
  7  8  2  0  0  0  0
  7 19  1  0  0  0  0
  8 20  1  0  0  0  0
  9 10  1  0  0  0  0
  9 21  1  0  0  0  0
  9 22  1  0  0  0  0
 10 11  1  0  0  0  0
 11 12  3  0  0  0  0
 13 14  1  0  0  0  0
 14 23  1  0  0  0  0
 14 24  1  0  0  0  0
 14 25  1  0  0  0  0
M  END
$$$$
