
 OpenBabel07222214433D

 17 18  0  0  0  0  0  0  0  0999 V2000
    0.9687   -0.0166   -0.0920 O   0  0  0  0  0  0  0  0  0  0  0  0
    2.1917   -0.0044    0.0167 C   0  0  0  0  0  0  0  0  0  0  0  0
    2.8880   -1.0483    0.7841 C   0  0  0  0  0  0  0  0  0  0  0  0
    3.9434   -0.7003    1.6506 C   0  0  0  0  0  0  0  0  0  0  0  0
    4.5322   -1.6813    2.4590 C   0  0  0  0  0  0  0  0  0  0  0  0
    4.0620   -2.9751    2.3488 C   0  0  0  0  0  0  0  0  0  0  0  0
    4.4945   -4.0460    3.0679 O   0  0  0  0  0  0  0  0  0  0  0  0
    3.6026   -5.0754    2.5871 C   0  0  0  0  0  0  0  0  0  0  0  0
    2.7588   -4.6362    1.5032 O   0  0  0  0  0  0  0  0  0  0  0  0
    3.0603   -3.3110    1.4669 C   0  0  0  0  0  0  0  0  0  0  0  0
    2.4475   -2.3705    0.6706 C   0  0  0  0  0  0  0  0  0  0  0  0
    2.8073    0.7870   -0.4377 H   0  0  0  0  0  0  0  0  0  0  0  0
    4.2791    0.3309    1.7330 H   0  0  0  0  0  0  0  0  0  0  0  0
    5.3175   -1.4349    3.1658 H   0  0  0  0  0  0  0  0  0  0  0  0
    2.9599   -5.4002    3.4144 H   0  0  0  0  0  0  0  0  0  0  0  0
    4.1983   -5.9312    2.2503 H   0  0  0  0  0  0  0  0  0  0  0  0
    1.6472   -2.6434   -0.0083 H   0  0  0  0  0  0  0  0  0  0  0  0
  1  2  2  0  0  0  0
  2  3  1  0  0  0  0
  2 12  1  0  0  0  0
  3  4  1  0  0  0  0
  3 11  2  0  0  0  0
  4  5  2  0  0  0  0
  4 13  1  0  0  0  0
  5  6  1  0  0  0  0
  5 14  1  0  0  0  0
  6  7  1  0  0  0  0
  6 10  2  0  0  0  0
  7  8  1  0  0  0  0
  8  9  1  0  0  0  0
  8 15  1  0  0  0  0
  8 16  1  0  0  0  0
  9 10  1  0  0  0  0
 10 11  1  0  0  0  0
 11 17  1  0  0  0  0
M  END
$$$$
