
 OpenBabel07222214433D

 27 28  0  0  0  0  0  0  0  0999 V2000
    0.9211   -0.0657    0.1340 C   0  0  0  0  0  0  0  0  0  0  0  0
    2.4611   -0.0502    0.1372 C   0  0  0  0  0  0  0  0  0  0  0  0
    2.8983   -0.0527    1.6121 C   0  0  0  0  0  0  0  0  0  0  0  0
    3.1114   -1.1579   -0.7307 C   0  0  0  0  0  0  0  0  0  0  0  0
    2.6060   -0.8099   -2.1525 C   0  0  0  0  0  0  0  0  0  0  0  0
    2.5947    0.7397   -2.1514 C   0  0  0  0  0  0  0  0  0  0  0  0
    3.0695    1.0888   -0.7204 C   0  0  0  0  0  0  0  0  0  0  0  0
    2.7771    2.4988   -0.2616 C   0  0  0  0  0  0  0  0  0  0  0  0
    4.5420    0.6737   -0.7043 C   0  0  0  0  0  0  0  0  0  0  0  0
    5.5038    1.4295   -0.7157 O   0  0  0  0  0  0  0  0  0  0  0  0
    4.6280   -0.8406   -0.6918 C   0  0  0  0  0  0  0  0  0  0  0  0
    0.5468   -0.9259    0.6966 H   0  0  0  0  0  0  0  0  0  0  0  0
    0.4719   -0.1222   -0.8597 H   0  0  0  0  0  0  0  0  0  0  0  0
    0.5297    0.8452    0.5989 H   0  0  0  0  0  0  0  0  0  0  0  0
    2.4903   -0.9307    2.1243 H   0  0  0  0  0  0  0  0  0  0  0  0
    2.5196    0.8374    2.1263 H   0  0  0  0  0  0  0  0  0  0  0  0
    3.9810   -0.0670    1.7593 H   0  0  0  0  0  0  0  0  0  0  0  0
    2.8809   -2.1812   -0.4247 H   0  0  0  0  0  0  0  0  0  0  0  0
    1.5996   -1.2085   -2.3210 H   0  0  0  0  0  0  0  0  0  0  0  0
    3.2479   -1.2172   -2.9397 H   0  0  0  0  0  0  0  0  0  0  0  0
    1.5849    1.1184   -2.3456 H   0  0  0  0  0  0  0  0  0  0  0  0
    3.2553    1.1399   -2.9278 H   0  0  0  0  0  0  0  0  0  0  0  0
    1.7005    2.6985   -0.2697 H   0  0  0  0  0  0  0  0  0  0  0  0
    3.2597    3.2403   -0.9047 H   0  0  0  0  0  0  0  0  0  0  0  0
    3.1384    2.6696    0.7583 H   0  0  0  0  0  0  0  0  0  0  0  0
    5.1030   -1.1900    0.2274 H   0  0  0  0  0  0  0  0  0  0  0  0
    5.1599   -1.2167   -1.5692 H   0  0  0  0  0  0  0  0  0  0  0  0
  1  2  1  0  0  0  0
  1 12  1  0  0  0  0
  1 13  1  0  0  0  0
  1 14  1  0  0  0  0
  2  3  1  0  0  0  0
  2  4  1  0  0  0  0
  2  7  1  0  0  0  0
  3 15  1  0  0  0  0
  3 16  1  0  0  0  0
  3 17  1  0  0  0  0
  4  5  1  0  0  0  0
  4 11  1  0  0  0  0
  4 18  1  0  0  0  0
  5  6  1  0  0  0  0
  5 19  1  0  0  0  0
  5 20  1  0  0  0  0
  6  7  1  0  0  0  0
  6 21  1  0  0  0  0
  6 22  1  0  0  0  0
  7  8  1  0  0  0  0
  7  9  1  0  0  0  0
  8 23  1  0  0  0  0
  8 24  1  0  0  0  0
  8 25  1  0  0  0  0
  9 10  2  0  0  0  0
  9 11  1  0  0  0  0
 11 26  1  0  0  0  0
 11 27  1  0  0  0  0
M  END
$$$$
