
 OpenBabel07202215583D

 31 30  0  0  1  0  0  0  0  0999 V2000
    0.9560    0.0700    0.1181 C   0  0  0  0  0  0  0  0  0  0  0  0
    2.4886    0.0219    0.0805 C   0  0  1  0  0  0  0  0  0  0  0  0
    2.9916   -1.1159   -0.8230 C   0  0  0  0  0  0  0  0  0  0  0  0
    2.5135   -2.4688   -0.3361 C   0  0  0  0  0  0  0  0  0  0  0  0
    3.0087   -3.5838   -1.1947 C   0  0  0  0  0  0  0  0  0  0  0  0
    2.6814   -4.8685   -0.9517 C   0  0  0  0  0  0  0  0  0  0  0  0
    1.8157   -5.2791    0.2093 C   0  0  0  0  0  0  0  0  0  0  0  0
    3.1709   -5.9645   -1.8473 C   0  0  0  0  0  0  0  0  0  0  0  0
    3.0384    1.3685   -0.4060 C   0  0  0  0  0  0  0  0  0  0  0  0
    4.5630    1.4187   -0.4071 C   0  0  0  0  0  0  0  0  0  0  0  0
    4.9976    2.6932   -0.8540 O   0  0  0  0  0  0  0  0  0  0  0  0
    0.5296   -0.8469    0.5368 H   0  0  0  0  0  0  0  0  0  0  0  0
    0.5454    0.2032   -0.8885 H   0  0  0  0  0  0  0  0  0  0  0  0
    0.6030    0.8908    0.7488 H   0  0  0  0  0  0  0  0  0  0  0  0
    2.8469   -0.1535    1.1041 H   0  0  0  0  0  0  0  0  0  0  0  0
    4.0865   -1.1442   -0.8318 H   0  0  0  0  0  0  0  0  0  0  0  0
    2.6674   -0.9442   -1.8572 H   0  0  0  0  0  0  0  0  0  0  0  0
    1.4206   -2.5003   -0.3489 H   0  0  0  0  0  0  0  0  0  0  0  0
    2.8638   -2.6122    0.6937 H   0  0  0  0  0  0  0  0  0  0  0  0
    3.6321   -3.3336   -2.0495 H   0  0  0  0  0  0  0  0  0  0  0  0
    1.4847   -4.4359    0.8246 H   0  0  0  0  0  0  0  0  0  0  0  0
    2.3664   -5.9506    0.8734 H   0  0  0  0  0  0  0  0  0  0  0  0
    0.9105   -5.7773   -0.1483 H   0  0  0  0  0  0  0  0  0  0  0  0
    3.7858   -5.5791   -2.6684 H   0  0  0  0  0  0  0  0  0  0  0  0
    2.3241   -6.4975   -2.2902 H   0  0  0  0  0  0  0  0  0  0  0  0
    3.7812   -6.6721   -1.2786 H   0  0  0  0  0  0  0  0  0  0  0  0
    2.6559    2.1780    0.2288 H   0  0  0  0  0  0  0  0  0  0  0  0
    2.6644    1.5837   -1.4154 H   0  0  0  0  0  0  0  0  0  0  0  0
    5.0020    0.6760   -1.0782 H   0  0  0  0  0  0  0  0  0  0  0  0
    4.9559    1.2443    0.5994 H   0  0  0  0  0  0  0  0  0  0  0  0
    4.6920    2.7877   -1.7728 H   0  0  0  0  0  0  0  0  0  0  0  0
  1  2  1  0  0  0  0
  1 12  1  0  0  0  0
  1 13  1  0  0  0  0
  1 14  1  0  0  0  0
  2  3  1  0  0  0  0
  2  9  1  0  0  0  0
  2 15  1  1  0  0  0
  3  4  1  0  0  0  0
  3 16  1  0  0  0  0
  3 17  1  0  0  0  0
  4  5  1  0  0  0  0
  4 18  1  0  0  0  0
  4 19  1  0  0  0  0
  5  6  2  0  0  0  0
  5 20  1  0  0  0  0
  6  7  1  0  0  0  0
  6  8  1  0  0  0  0
  7 21  1  0  0  0  0
  7 22  1  0  0  0  0
  7 23  1  0  0  0  0
  8 24  1  0  0  0  0
  8 25  1  0  0  0  0
  8 26  1  0  0  0  0
  9 10  1  0  0  0  0
  9 27  1  0  0  0  0
  9 28  1  0  0  0  0
 10 11  1  0  0  0  0
 10 29  1  0  0  0  0
 10 30  1  0  0  0  0
 11 31  1  0  0  0  0
M  END
$$$$
