
 OpenBabel07122215493D

 30 29  0  0  0  0  0  0  0  0999 V2000
    0.9796    0.0178   -0.1187 C   0  0  0  0  0  0  0  0  0  0  0  0
    2.4924    0.0038   -0.1000 C   0  0  0  0  0  0  0  0  0  0  0  0
    2.9764   -0.8853    1.0373 C   0  0  0  0  0  0  0  0  0  0  0  0
    4.4813   -0.9049    1.0679 C   0  0  0  0  0  0  0  0  0  0  0  0
    5.0136   -1.7926    2.1953 C   0  0  0  0  0  0  0  0  0  0  0  0
    6.5152   -1.7463    2.1054 C   0  0  0  0  0  0  0  0  0  0  0  0
    7.0066   -1.0177    1.2405 O   0  0  0  0  0  0  0  0  0  0  0  0
    7.3565   -2.5306    3.0869 C   0  0  0  0  0  0  0  0  0  0  0  0
    6.9961   -4.0194    3.0310 C   0  0  0  0  0  0  0  0  0  0  0  0
    8.8751   -2.3925    2.9627 C   0  0  0  0  0  0  0  0  0  0  0  0
    9.5637   -1.5633    1.8996 C   0  0  0  0  0  0  0  0  0  0  0  0
    9.5959   -2.9975    3.7704 O   0  0  0  0  0  0  0  0  0  0  0  0
    0.6135    0.6522   -0.9287 H   0  0  0  0  0  0  0  0  0  0  0  0
    0.5906    0.4015    0.8298 H   0  0  0  0  0  0  0  0  0  0  0  0
    0.5911   -0.9952   -0.2644 H   0  0  0  0  0  0  0  0  0  0  0  0
    2.8739    1.0245    0.0270 H   0  0  0  0  0  0  0  0  0  0  0  0
    2.8745   -0.3649   -1.0601 H   0  0  0  0  0  0  0  0  0  0  0  0
    2.6044   -1.9069    0.9032 H   0  0  0  0  0  0  0  0  0  0  0  0
    2.6013   -0.5124    1.9965 H   0  0  0  0  0  0  0  0  0  0  0  0
    4.8605    0.1206    1.1865 H   0  0  0  0  0  0  0  0  0  0  0  0
    4.8615   -1.2663    0.1007 H   0  0  0  0  0  0  0  0  0  0  0  0
    4.6617   -2.8175    2.0533 H   0  0  0  0  0  0  0  0  0  0  0  0
    4.6935   -1.4175    3.1722 H   0  0  0  0  0  0  0  0  0  0  0  0
    7.1039   -2.1466    4.0864 H   0  0  0  0  0  0  0  0  0  0  0  0
    7.2323   -4.4367    2.0463 H   0  0  0  0  0  0  0  0  0  0  0  0
    5.9322   -4.1933    3.2221 H   0  0  0  0  0  0  0  0  0  0  0  0
    7.5485   -4.6003    3.7789 H   0  0  0  0  0  0  0  0  0  0  0  0
    8.9513   -1.0185    1.1998 H   0  0  0  0  0  0  0  0  0  0  0  0
   10.1734   -2.2240    1.2807 H   0  0  0  0  0  0  0  0  0  0  0  0
   10.1734   -0.8015    2.3896 H   0  0  0  0  0  0  0  0  0  0  0  0
  1  2  1  0  0  0  0
  1 13  1  0  0  0  0
  1 14  1  0  0  0  0
  1 15  1  0  0  0  0
  2  3  1  0  0  0  0
  2 16  1  0  0  0  0
  2 17  1  0  0  0  0
  3  4  1  0  0  0  0
  3 18  1  0  0  0  0
  3 19  1  0  0  0  0
  4  5  1  0  0  0  0
  4 20  1  0  0  0  0
  4 21  1  0  0  0  0
  5  6  1  0  0  0  0
  5 22  1  0  0  0  0
  5 23  1  0  0  0  0
  6  7  2  0  0  0  0
  6  8  1  0  0  0  0
  8  9  1  0  0  0  0
  8 10  1  0  0  0  0
  8 24  1  0  0  0  0
  9 25  1  0  0  0  0
  9 26  1  0  0  0  0
  9 27  1  0  0  0  0
 10 11  1  0  0  0  0
 10 12  2  0  0  0  0
 11 28  1  0  0  0  0
 11 29  1  0  0  0  0
 11 30  1  0  0  0  0
M  END
$$$$
