
 OpenBabel07202215583D

 24 24  0  0  0  0  0  0  0  0999 V2000
   -2.5214   -1.0345   -0.0535 C   0  0  0  0  0  0  0  0  0  0  0  0
   -1.0737   -0.6340    0.0025 C   0  0  0  0  0  0  0  0  0  0  0  0
   -0.0326   -1.5844    0.0278 C   0  0  0  0  0  0  0  0  0  0  0  0
    1.3528   -1.2276    0.0208 C   0  0  0  0  0  0  0  0  0  0  0  0
    1.6638    0.1464   -0.0068 C   0  0  0  0  0  0  0  0  0  0  0  0
    0.6024    1.0907    0.0033 C   0  0  0  0  0  0  0  0  0  0  0  0
   -0.7321    0.7083    0.0053 C   0  0  0  0  0  0  0  0  0  0  0  0
   -1.7245    1.6451    0.0022 O   0  0  0  0  0  0  0  0  0  0  0  0
    3.0043    0.8137   -0.0356 C   0  0  0  0  0  0  0  0  0  0  0  0
    2.3018   -2.4180    0.0361 C   0  0  0  0  0  0  0  0  0  0  0  0
    1.8108   -3.5490    0.0635 O   0  0  0  0  0  0  0  0  0  0  0  0
    3.8105   -2.3451    0.0171 C   0  0  0  0  0  0  0  0  0  0  0  0
   -2.6500   -2.1203   -0.0429 H   0  0  0  0  0  0  0  0  0  0  0  0
   -2.9760   -0.6533   -0.9758 H   0  0  0  0  0  0  0  0  0  0  0  0
   -3.0672   -0.6208    0.8020 H   0  0  0  0  0  0  0  0  0  0  0  0
   -0.3170   -2.6391    0.0479 H   0  0  0  0  0  0  0  0  0  0  0  0
    0.8496    2.1509   -0.0008 H   0  0  0  0  0  0  0  0  0  0  0  0
   -1.3310    2.5322    0.0168 H   0  0  0  0  0  0  0  0  0  0  0  0
    3.8675    0.1966   -0.1559 H   0  0  0  0  0  0  0  0  0  0  0  0
    3.1595    1.3731    0.8916 H   0  0  0  0  0  0  0  0  0  0  0  0
    3.0621    1.4811   -0.9011 H   0  0  0  0  0  0  0  0  0  0  0  0
    4.2893   -1.3915    0.0271 H   0  0  0  0  0  0  0  0  0  0  0  0
    4.1753   -2.8411   -0.8867 H   0  0  0  0  0  0  0  0  0  0  0  0
    4.1957   -2.8406    0.9119 H   0  0  0  0  0  0  0  0  0  0  0  0
  1  2  1  0  0  0  0
  1 13  1  0  0  0  0
  1 14  1  0  0  0  0
  1 15  1  0  0  0  0
  2  3  2  0  0  0  0
  2  7  1  0  0  0  0
  3  4  1  0  0  0  0
  3 16  1  0  0  0  0
  4  5  2  0  0  0  0
  4 10  1  0  0  0  0
  5  6  1  0  0  0  0
  5  9  1  0  0  0  0
  6  7  2  0  0  0  0
  6 17  1  0  0  0  0
  7  8  1  0  0  0  0
  8 18  1  0  0  0  0
  9 19  1  0  0  0  0
  9 20  1  0  0  0  0
  9 21  1  0  0  0  0
 10 11  2  0  0  0  0
 10 12  1  0  0  0  0
 12 22  1  0  0  0  0
 12 23  1  0  0  0  0
 12 24  1  0  0  0  0
M  END
$$$$
