
 OpenBabel07222214433D

 20 19  0  0  0  0  0  0  0  0999 V2000
    1.1046   -0.0798    0.0746 C   0  0  0  0  0  0  0  0  0  0  0  0
    2.6236   -0.0958    0.0857 C   0  0  0  0  0  0  0  0  0  0  0  0
    3.0979   -1.2577    0.7920 O   0  0  0  0  0  0  0  0  0  0  0  0
    4.4608   -1.3525    0.8364 C   0  0  0  0  0  0  0  0  0  0  0  0
    5.2199   -0.5190    0.3530 O   0  0  0  0  0  0  0  0  0  0  0  0
    4.9256   -2.5958    1.5905 C   0  0  0  0  0  0  0  0  0  0  0  0
    4.4211   -3.8759    0.9325 C   0  0  0  0  0  0  0  0  0  0  0  0
    6.4569   -2.6319    1.6416 C   0  0  0  0  0  0  0  0  0  0  0  0
    0.7296    0.7991   -0.4611 H   0  0  0  0  0  0  0  0  0  0  0  0
    0.7070   -0.0604    1.0942 H   0  0  0  0  0  0  0  0  0  0  0  0
    0.7083   -0.9771   -0.4109 H   0  0  0  0  0  0  0  0  0  0  0  0
    2.9889    0.8120    0.5802 H   0  0  0  0  0  0  0  0  0  0  0  0
    2.9894   -0.1195   -0.9476 H   0  0  0  0  0  0  0  0  0  0  0  0
    4.5501   -2.5329    2.6194 H   0  0  0  0  0  0  0  0  0  0  0  0
    4.7677   -3.9458   -0.1044 H   0  0  0  0  0  0  0  0  0  0  0  0
    3.3280   -3.9180    0.9238 H   0  0  0  0  0  0  0  0  0  0  0  0
    4.7854   -4.7602    1.4690 H   0  0  0  0  0  0  0  0  0  0  0  0
    6.8812   -2.6633    0.6310 H   0  0  0  0  0  0  0  0  0  0  0  0
    6.8187   -3.5115    2.1849 H   0  0  0  0  0  0  0  0  0  0  0  0
    6.8547   -1.7409    2.1388 H   0  0  0  0  0  0  0  0  0  0  0  0
  1  2  1  0  0  0  0
  1  9  1  0  0  0  0
  1 10  1  0  0  0  0
  1 11  1  0  0  0  0
  2  3  1  0  0  0  0
  2 12  1  0  0  0  0
  2 13  1  0  0  0  0
  3  4  1  0  0  0  0
  4  5  2  0  0  0  0
  4  6  1  0  0  0  0
  6  7  1  0  0  0  0
  6  8  1  0  0  0  0
  6 14  1  0  0  0  0
  7 15  1  0  0  0  0
  7 16  1  0  0  0  0
  7 17  1  0  0  0  0
  8 18  1  0  0  0  0
  8 19  1  0  0  0  0
  8 20  1  0  0  0  0
M  END
$$$$
