
 OpenBabel07202215583D

 20 20  0  0  0  0  0  0  0  0999 V2000
    1.0673   -0.1126   -0.0555 C   0  0  0  0  0  0  0  0  0  0  0  0
    2.4897   -0.1030   -0.0419 O   0  0  0  0  0  0  0  0  0  0  0  0
    3.1034    1.1245   -0.0448 C   0  0  0  0  0  0  0  0  0  0  0  0
    4.5082    1.0367   -0.0604 C   0  0  0  0  0  0  0  0  0  0  0  0
    5.3029    2.1883   -0.0824 C   0  0  0  0  0  0  0  0  0  0  0  0
    4.6633    3.4396   -0.0857 C   0  0  0  0  0  0  0  0  0  0  0  0
    3.2676    3.5388   -0.0574 C   0  0  0  0  0  0  0  0  0  0  0  0
    2.4894    2.3840   -0.0345 C   0  0  0  0  0  0  0  0  0  0  0  0
    1.1287    2.5093   -0.0002 O   0  0  0  0  0  0  0  0  0  0  0  0
    6.7989    2.1771   -0.1041 C   0  0  0  0  0  0  0  0  0  0  0  0
    7.4103    0.9763   -0.0979 O   0  0  0  0  0  0  0  0  0  0  0  0
    7.4465    3.2163   -0.1259 O   0  0  0  0  0  0  0  0  0  0  0  0
    0.7313   -1.1524   -0.0664 H   0  0  0  0  0  0  0  0  0  0  0  0
    0.6789    0.3607   -0.9642 H   0  0  0  0  0  0  0  0  0  0  0  0
    0.6658    0.3439    0.8555 H   0  0  0  0  0  0  0  0  0  0  0  0
    4.9366    0.0415   -0.0554 H   0  0  0  0  0  0  0  0  0  0  0  0
    5.2541    4.3552   -0.1086 H   0  0  0  0  0  0  0  0  0  0  0  0
    2.8070    4.5228   -0.0551 H   0  0  0  0  0  0  0  0  0  0  0  0
    0.8648    3.4422    0.0250 H   0  0  0  0  0  0  0  0  0  0  0  0
    6.8639    0.1742   -0.0804 H   0  0  0  0  0  0  0  0  0  0  0  0
  1  2  1  0  0  0  0
  1 13  1  0  0  0  0
  1 14  1  0  0  0  0
  1 15  1  0  0  0  0
  2  3  1  0  0  0  0
  3  4  1  0  0  0  0
  3  8  2  0  0  0  0
  4  5  2  0  0  0  0
  4 16  1  0  0  0  0
  5  6  1  0  0  0  0
  5 10  1  0  0  0  0
  6  7  2  0  0  0  0
  6 17  1  0  0  0  0
  7  8  1  0  0  0  0
  7 18  1  0  0  0  0
  8  9  1  0  0  0  0
  9 19  1  0  0  0  0
 10 11  1  0  0  0  0
 10 12  2  0  0  0  0
 11 20  1  0  0  0  0
M  END
$$$$
