
 OpenBabel07202215583D

 23 24  0  0  0  0  0  0  0  0999 V2000
    1.0863    0.0660   -0.0093 O   0  0  0  0  0  0  0  0  0  0  0  0
    0.3644    1.2379   -0.0592 C   0  0  0  0  0  0  0  0  0  0  0  0
   -0.5542    1.4952    0.9613 C   0  0  0  0  0  0  0  0  0  0  0  0
   -1.3414    2.6489    0.9077 C   0  0  0  0  0  0  0  0  0  0  0  0
   -1.1737    3.5648   -0.1314 C   0  0  0  0  0  0  0  0  0  0  0  0
   -0.2505    3.3093   -1.1456 C   0  0  0  0  0  0  0  0  0  0  0  0
    0.4858    2.1260   -1.1304 C   0  0  0  0  0  0  0  0  0  0  0  0
    2.4669    0.1366    0.0126 C   0  0  0  0  0  0  0  0  0  0  0  0
    3.1465   -1.0890    0.0240 C   0  0  0  0  0  0  0  0  0  0  0  0
    4.5392   -1.1154    0.1583 C   0  0  0  0  0  0  0  0  0  0  0  0
    5.2625    0.0735    0.2125 C   0  0  0  0  0  0  0  0  0  0  0  0
    4.5953    1.2943    0.1562 C   0  0  0  0  0  0  0  0  0  0  0  0
    3.2048    1.3194    0.0827 C   0  0  0  0  0  0  0  0  0  0  0  0
   -0.6547    0.8087    1.7966 H   0  0  0  0  0  0  0  0  0  0  0  0
   -2.0878    2.8355    1.6768 H   0  0  0  0  0  0  0  0  0  0  0  0
   -1.7654    4.4764   -0.1565 H   0  0  0  0  0  0  0  0  0  0  0  0
   -0.1081    4.0251   -1.9495 H   0  0  0  0  0  0  0  0  0  0  0  0
    1.1887    1.9183   -1.9333 H   0  0  0  0  0  0  0  0  0  0  0  0
    2.5974   -2.0233   -0.0493 H   0  0  0  0  0  0  0  0  0  0  0  0
    5.0614   -2.0672    0.2352 H   0  0  0  0  0  0  0  0  0  0  0  0
    6.3444    0.0578    0.3083 H   0  0  0  0  0  0  0  0  0  0  0  0
    5.1448    2.2288    0.1949 H   0  0  0  0  0  0  0  0  0  0  0  0
    2.7231    2.2924    0.0920 H   0  0  0  0  0  0  0  0  0  0  0  0
  1  2  1  0  0  0  0
  1  8  1  0  0  0  0
  2  3  1  0  0  0  0
  2  7  2  0  0  0  0
  3  4  2  0  0  0  0
  3 14  1  0  0  0  0
  4  5  1  0  0  0  0
  4 15  1  0  0  0  0
  5  6  2  0  0  0  0
  5 16  1  0  0  0  0
  6  7  1  0  0  0  0
  6 17  1  0  0  0  0
  7 18  1  0  0  0  0
  8  9  1  0  0  0  0
  8 13  2  0  0  0  0
  9 10  2  0  0  0  0
  9 19  1  0  0  0  0
 10 11  1  0  0  0  0
 10 20  1  0  0  0  0
 11 12  2  0  0  0  0
 11 21  1  0  0  0  0
 12 13  1  0  0  0  0
 12 22  1  0  0  0  0
 13 23  1  0  0  0  0
M  END
$$$$
