
 OpenBabel07122215493D

 39 38  0  0  0  0  0  0  0  0999 V2000
    0.8908   -0.0312   -0.0886 C   0  0  0  0  0  0  0  0  0  0  0  0
    2.4080   -0.0261   -0.0799 C   0  0  0  0  0  0  0  0  0  0  0  0
    2.9363    0.6942    1.1541 C   0  0  0  0  0  0  0  0  0  0  0  0
    4.4584    0.7005    1.1649 C   0  0  0  0  0  0  0  0  0  0  0  0
    4.9754    1.4219    2.4008 C   0  0  0  0  0  0  0  0  0  0  0  0
    6.4958    1.4279    2.4110 C   0  0  0  0  0  0  0  0  0  0  0  0
    7.0107    2.1490    3.6465 C   0  0  0  0  0  0  0  0  0  0  0  0
    8.5311    2.1548    3.6566 C   0  0  0  0  0  0  0  0  0  0  0  0
    9.0484    2.8760    4.8924 C   0  0  0  0  0  0  0  0  0  0  0  0
   10.5704    2.8817    4.9023 C   0  0  0  0  0  0  0  0  0  0  0  0
   11.0988    3.6018    6.1342 C   0  0  0  0  0  0  0  0  0  0  0  0
   12.6185    3.6099    6.1442 C   0  0  0  0  0  0  0  0  0  0  0  0
   13.0859    4.2820    7.3050 O   0  0  0  0  0  0  0  0  0  0  0  0
    0.5186   -0.5495   -0.9765 H   0  0  0  0  0  0  0  0  0  0  0  0
    0.4992    0.9910   -0.0971 H   0  0  0  0  0  0  0  0  0  0  0  0
    0.4992   -0.5413    0.7974 H   0  0  0  0  0  0  0  0  0  0  0  0
    2.7779    0.4669   -0.9864 H   0  0  0  0  0  0  0  0  0  0  0  0
    2.7779   -1.0580   -0.0964 H   0  0  0  0  0  0  0  0  0  0  0  0
    2.5639    0.2016    2.0608 H   0  0  0  0  0  0  0  0  0  0  0  0
    2.5639    1.7259    1.1710 H   0  0  0  0  0  0  0  0  0  0  0  0
    4.8363    1.1959    0.2621 H   0  0  0  0  0  0  0  0  0  0  0  0
    4.8363   -0.3292    1.1523 H   0  0  0  0  0  0  0  0  0  0  0  0
    4.6003    0.9279    3.3056 H   0  0  0  0  0  0  0  0  0  0  0  0
    4.6003    2.4527    2.4156 H   0  0  0  0  0  0  0  0  0  0  0  0
    6.8725    1.9227    1.5074 H   0  0  0  0  0  0  0  0  0  0  0  0
    6.8725    0.3977    2.3976 H   0  0  0  0  0  0  0  0  0  0  0  0
    6.6341    1.6542    4.5502 H   0  0  0  0  0  0  0  0  0  0  0  0
    6.6342    3.1792    3.6600 H   0  0  0  0  0  0  0  0  0  0  0  0
    8.9062    2.6488    2.7518 H   0  0  0  0  0  0  0  0  0  0  0  0
    8.9062    1.1240    3.6418 H   0  0  0  0  0  0  0  0  0  0  0  0
    8.6708    2.3808    5.7953 H   0  0  0  0  0  0  0  0  0  0  0  0
    8.6709    3.9058    4.9051 H   0  0  0  0  0  0  0  0  0  0  0  0
   10.9424    3.3743    3.9955 H   0  0  0  0  0  0  0  0  0  0  0  0
   10.9427    1.8500    4.8859 H   0  0  0  0  0  0  0  0  0  0  0  0
   10.7265    3.1202    7.0470 H   0  0  0  0  0  0  0  0  0  0  0  0
   10.7219    4.6318    6.1624 H   0  0  0  0  0  0  0  0  0  0  0  0
   13.0168    4.1198    5.2610 H   0  0  0  0  0  0  0  0  0  0  0  0
   13.0110    2.5888    6.1576 H   0  0  0  0  0  0  0  0  0  0  0  0
   12.7344    5.1853    7.2786 H   0  0  0  0  0  0  0  0  0  0  0  0
  1  2  1  0  0  0  0
  1 14  1  0  0  0  0
  1 15  1  0  0  0  0
  1 16  1  0  0  0  0
  2  3  1  0  0  0  0
  2 17  1  0  0  0  0
  2 18  1  0  0  0  0
  3  4  1  0  0  0  0
  3 19  1  0  0  0  0
  3 20  1  0  0  0  0
  4  5  1  0  0  0  0
  4 21  1  0  0  0  0
  4 22  1  0  0  0  0
  5  6  1  0  0  0  0
  5 23  1  0  0  0  0
  5 24  1  0  0  0  0
  6  7  1  0  0  0  0
  6 25  1  0  0  0  0
  6 26  1  0  0  0  0
  7  8  1  0  0  0  0
  7 27  1  0  0  0  0
  7 28  1  0  0  0  0
  8  9  1  0  0  0  0
  8 29  1  0  0  0  0
  8 30  1  0  0  0  0
  9 10  1  0  0  0  0
  9 31  1  0  0  0  0
  9 32  1  0  0  0  0
 10 11  1  0  0  0  0
 10 33  1  0  0  0  0
 10 34  1  0  0  0  0
 11 12  1  0  0  0  0
 11 35  1  0  0  0  0
 11 36  1  0  0  0  0
 12 13  1  0  0  0  0
 12 37  1  0  0  0  0
 12 38  1  0  0  0  0
 13 39  1  0  0  0  0
M  END
$$$$
