
 OpenBabel07202215583D

 19 19  0  0  0  0  0  0  0  0999 V2000
    2.5054   -0.0574   -0.0125 C   0  0  0  0  0  0  0  0  0  0  0  0
    1.0019    0.0228    0.0026 C   0  0  0  0  0  0  0  0  0  0  0  0
    0.2790   -1.1877    0.0056 C   0  0  0  0  0  0  0  0  0  0  0  0
   -1.1182   -1.1985   -0.0002 C   0  0  0  0  0  0  0  0  0  0  0  0
   -1.8171    0.0119   -0.0087 C   0  0  0  0  0  0  0  0  0  0  0  0
   -1.1285    1.2323   -0.0006 C   0  0  0  0  0  0  0  0  0  0  0  0
    0.2812    1.2408    0.0031 C   0  0  0  0  0  0  0  0  0  0  0  0
    0.9553    2.5627   -0.0005 N   0  3  0  0  0  0  0  0  0  0  0  0
    0.2309    3.5689   -0.0062 O   0  5  0  0  0  0  0  0  0  0  0  0
    2.1896    2.6093    0.0017 O   0  0  0  0  0  0  0  0  0  0  0  0
   -3.2870    0.0003   -0.0375 N   0  3  0  0  0  0  0  0  0  0  0  0
   -3.8536   -1.1017   -0.0512 O   0  5  0  0  0  0  0  0  0  0  0  0
   -3.8699    1.0922   -0.0507 O   0  0  0  0  0  0  0  0  0  0  0  0
    2.8624   -1.0920   -0.0035 H   0  0  0  0  0  0  0  0  0  0  0  0
    2.9208    0.4287    0.8760 H   0  0  0  0  0  0  0  0  0  0  0  0
    2.8962    0.4068   -0.9240 H   0  0  0  0  0  0  0  0  0  0  0  0
    0.8050   -2.1432    0.0068 H   0  0  0  0  0  0  0  0  0  0  0  0
   -1.6410   -2.1544   -0.0023 H   0  0  0  0  0  0  0  0  0  0  0  0
   -1.6856    2.1690   -0.0020 H   0  0  0  0  0  0  0  0  0  0  0  0
  1  2  1  0  0  0  0
  1 14  1  0  0  0  0
  1 15  1  0  0  0  0
  1 16  1  0  0  0  0
  2  3  1  0  0  0  0
  2  7  2  0  0  0  0
  3  4  2  0  0  0  0
  3 17  1  0  0  0  0
  4  5  1  0  0  0  0
  4 18  1  0  0  0  0
  5  6  2  0  0  0  0
  5 11  1  0  0  0  0
  6  7  1  0  0  0  0
  6 19  1  0  0  0  0
  7  8  1  0  0  0  0
  8  9  1  0  0  0  0
  8 10  2  0  0  0  0
 11 12  1  0  0  0  0
 11 13  2  0  0  0  0
M  CHG  4   8   1   9  -1  11   1  12  -1
M  END
$$$$
