
 OpenBabel07202215583D

 25 24  0  0  0  0  0  0  0  0999 V2000
    0.9135    0.0117    0.0739 C   0  0  0  0  0  0  0  0  0  0  0  0
    2.4302    0.0193    0.0708 C   0  0  0  0  0  0  0  0  0  0  0  0
    2.9563    1.3390   -0.4787 C   0  0  0  0  0  0  0  0  0  0  0  0
    4.4789    1.3505   -0.4835 C   0  0  0  0  0  0  0  0  0  0  0  0
    4.9981    2.6720   -1.0337 C   0  0  0  0  0  0  0  0  0  0  0  0
    6.5212    2.6895   -1.0410 C   0  0  0  0  0  0  0  0  0  0  0  0
    7.0351    4.0117   -1.5915 C   0  0  0  0  0  0  0  0  0  0  0  0
    8.5381    4.0423   -1.6042 C   0  0  0  0  0  0  0  0  0  0  0  0
    9.1772    5.0111   -2.0076 O   0  0  0  0  0  0  0  0  0  0  0  0
    0.5395   -0.9367    0.4688 H   0  0  0  0  0  0  0  0  0  0  0  0
    0.5237    0.1410   -0.9408 H   0  0  0  0  0  0  0  0  0  0  0  0
    0.5237    0.8229    0.6971 H   0  0  0  0  0  0  0  0  0  0  0  0
    2.8003   -0.8132   -0.5391 H   0  0  0  0  0  0  0  0  0  0  0  0
    2.8003   -0.1344    1.0912 H   0  0  0  0  0  0  0  0  0  0  0  0
    2.5824    2.1710    0.1309 H   0  0  0  0  0  0  0  0  0  0  0  0
    2.5824    1.4925   -1.4986 H   0  0  0  0  0  0  0  0  0  0  0  0
    4.8544    0.5208   -1.0946 H   0  0  0  0  0  0  0  0  0  0  0  0
    4.8544    1.1997    0.5359 H   0  0  0  0  0  0  0  0  0  0  0  0
    4.6198    3.5009   -0.4227 H   0  0  0  0  0  0  0  0  0  0  0  0
    4.6198    2.8224   -2.0524 H   0  0  0  0  0  0  0  0  0  0  0  0
    6.9002    1.8575   -1.6479 H   0  0  0  0  0  0  0  0  0  0  0  0
    6.9002    2.5340   -0.0229 H   0  0  0  0  0  0  0  0  0  0  0  0
    6.6804    4.8407   -0.9703 H   0  0  0  0  0  0  0  0  0  0  0  0
    6.6804    4.1549   -2.6174 H   0  0  0  0  0  0  0  0  0  0  0  0
    9.0569    3.1439   -1.2302 H   0  0  0  0  0  0  0  0  0  0  0  0
  1  2  1  0  0  0  0
  1 10  1  0  0  0  0
  1 11  1  0  0  0  0
  1 12  1  0  0  0  0
  2  3  1  0  0  0  0
  2 13  1  0  0  0  0
  2 14  1  0  0  0  0
  3  4  1  0  0  0  0
  3 15  1  0  0  0  0
  3 16  1  0  0  0  0
  4  5  1  0  0  0  0
  4 17  1  0  0  0  0
  4 18  1  0  0  0  0
  5  6  1  0  0  0  0
  5 19  1  0  0  0  0
  5 20  1  0  0  0  0
  6  7  1  0  0  0  0
  6 21  1  0  0  0  0
  6 22  1  0  0  0  0
  7  8  1  0  0  0  0
  7 23  1  0  0  0  0
  7 24  1  0  0  0  0
  8  9  2  0  0  0  0
  8 25  1  0  0  0  0
M  END
$$$$
