
 OpenBabel07122215493D

 32 31  0  0  0  0  0  0  0  0999 V2000
    1.0434   -0.0465   -0.0782 C   0  0  0  0  0  0  0  0  0  0  0  0
    2.5593   -0.0469   -0.0711 C   0  0  0  0  0  0  0  0  0  0  0  0
    3.0820   -0.1246    1.3559 C   0  0  0  0  0  0  0  0  0  0  0  0
    4.6019   -0.1252    1.3672 C   0  0  0  0  0  0  0  0  0  0  0  0
    5.1122   -0.2030    2.7967 C   0  0  0  0  0  0  0  0  0  0  0  0
    6.6295   -0.2037    2.8089 C   0  0  0  0  0  0  0  0  0  0  0  0
    7.1443   -0.2815    4.2384 C   0  0  0  0  0  0  0  0  0  0  0  0
    8.6630   -0.2807    4.2244 C   0  0  0  0  0  0  0  0  0  0  0  0
    9.2400   -0.3571    5.6267 C   0  0  0  0  0  0  0  0  0  0  0  0
   10.7496   -0.3611    5.7008 C   0  0  0  0  0  0  0  0  0  0  0  0
   11.4272   -0.2978    4.5384 O   0  0  0  0  0  0  0  0  0  0  0  0
   11.3420   -0.4194    6.7727 O   0  0  0  0  0  0  0  0  0  0  0  0
    0.6693    0.0093   -1.1037 H   0  0  0  0  0  0  0  0  0  0  0  0
    0.6546    0.8115    0.4794 H   0  0  0  0  0  0  0  0  0  0  0  0
    0.6546   -0.9600    0.3830 H   0  0  0  0  0  0  0  0  0  0  0  0
    2.9304    0.8638   -0.5555 H   0  0  0  0  0  0  0  0  0  0  0  0
    2.9304   -0.8997   -0.6515 H   0  0  0  0  0  0  0  0  0  0  0  0
    2.7093   -1.0350    1.8415 H   0  0  0  0  0  0  0  0  0  0  0  0
    2.7093    0.7277    1.9375 H   0  0  0  0  0  0  0  0  0  0  0  0
    4.9800    0.7854    0.8863 H   0  0  0  0  0  0  0  0  0  0  0  0
    4.9800   -0.9782    0.7903 H   0  0  0  0  0  0  0  0  0  0  0  0
    4.7368   -1.1139    3.2788 H   0  0  0  0  0  0  0  0  0  0  0  0
    4.7368    0.6501    3.3748 H   0  0  0  0  0  0  0  0  0  0  0  0
    7.0063    0.7064    2.3252 H   0  0  0  0  0  0  0  0  0  0  0  0
    7.0063   -1.0559    2.2293 H   0  0  0  0  0  0  0  0  0  0  0  0
    6.7716   -1.1930    4.7207 H   0  0  0  0  0  0  0  0  0  0  0  0
    6.7716    0.5723    4.8168 H   0  0  0  0  0  0  0  0  0  0  0  0
    9.0153    0.6327    3.7293 H   0  0  0  0  0  0  0  0  0  0  0  0
    9.0153   -1.1350    3.6330 H   0  0  0  0  0  0  0  0  0  0  0  0
    8.8828   -1.2727    6.1136 H   0  0  0  0  0  0  0  0  0  0  0  0
    8.8828    0.5003    6.2101 H   0  0  0  0  0  0  0  0  0  0  0  0
   10.9108   -0.2530    3.7146 H   0  0  0  0  0  0  0  0  0  0  0  0
  1  2  1  0  0  0  0
  1 13  1  0  0  0  0
  1 14  1  0  0  0  0
  1 15  1  0  0  0  0
  2  3  1  0  0  0  0
  2 16  1  0  0  0  0
  2 17  1  0  0  0  0
  3  4  1  0  0  0  0
  3 18  1  0  0  0  0
  3 19  1  0  0  0  0
  4  5  1  0  0  0  0
  4 20  1  0  0  0  0
  4 21  1  0  0  0  0
  5  6  1  0  0  0  0
  5 22  1  0  0  0  0
  5 23  1  0  0  0  0
  6  7  1  0  0  0  0
  6 24  1  0  0  0  0
  6 25  1  0  0  0  0
  7  8  1  0  0  0  0
  7 26  1  0  0  0  0
  7 27  1  0  0  0  0
  8  9  1  0  0  0  0
  8 28  1  0  0  0  0
  8 29  1  0  0  0  0
  9 10  1  0  0  0  0
  9 30  1  0  0  0  0
  9 31  1  0  0  0  0
 10 11  1  0  0  0  0
 10 12  2  0  0  0  0
 11 32  1  0  0  0  0
M  END
$$$$
