
 OpenBabel07222214433D

 26 27  0  0  0  0  0  0  0  0999 V2000
    0.9541   -0.0674    0.0489 C   0  0  0  0  0  0  0  0  0  0  0  0
    2.4806   -0.0511    0.0873 C   0  0  0  0  0  0  0  0  0  0  0  0
    2.9979    0.1416    1.5172 C   0  0  0  0  0  0  0  0  0  0  0  0
    2.5734    1.4666    2.1055 C   0  0  0  0  0  0  0  0  0  0  0  0
    3.0640    2.6570    1.5468 C   0  0  0  0  0  0  0  0  0  0  0  0
    2.6815    3.8480    2.1188 C   0  0  0  0  0  0  0  0  0  0  0  0
    1.8383    3.8936    3.2027 C   0  0  0  0  0  0  0  0  0  0  0  0
    1.3060    2.7492    3.7563 C   0  0  0  0  0  0  0  0  0  0  0  0
    1.6758    1.5218    3.1959 C   0  0  0  0  0  0  0  0  0  0  0  0
    1.6200    5.1660    3.6308 O   0  0  0  0  0  0  0  0  0  0  0  0
    2.4900    5.9005    2.7430 C   0  0  0  0  0  0  0  0  0  0  0  0
    3.0806    5.0824    1.7138 O   0  0  0  0  0  0  0  0  0  0  0  0
    3.0327   -1.3428   -0.4728 C   0  0  0  0  0  0  0  0  0  0  0  0
    4.2367   -1.5765   -0.5653 O   0  0  0  0  0  0  0  0  0  0  0  0
    0.5364    0.8742    0.4203 H   0  0  0  0  0  0  0  0  0  0  0  0
    0.5554   -0.8813    0.6641 H   0  0  0  0  0  0  0  0  0  0  0  0
    0.5893   -0.2059   -0.9731 H   0  0  0  0  0  0  0  0  0  0  0  0
    2.8359    0.7508   -0.5719 H   0  0  0  0  0  0  0  0  0  0  0  0
    4.0951    0.0975    1.5401 H   0  0  0  0  0  0  0  0  0  0  0  0
    2.6590   -0.6861    2.1547 H   0  0  0  0  0  0  0  0  0  0  0  0
    3.7324    2.6501    0.6924 H   0  0  0  0  0  0  0  0  0  0  0  0
    0.6313    2.8000    4.6034 H   0  0  0  0  0  0  0  0  0  0  0  0
    1.2586    0.6059    3.6106 H   0  0  0  0  0  0  0  0  0  0  0  0
    3.2994    6.3470    3.3332 H   0  0  0  0  0  0  0  0  0  0  0  0
    1.9149    6.7038    2.2701 H   0  0  0  0  0  0  0  0  0  0  0  0
    2.2956   -2.0900   -0.8097 H   0  0  0  0  0  0  0  0  0  0  0  0
  1  2  1  0  0  0  0
  1 15  1  0  0  0  0
  1 16  1  0  0  0  0
  1 17  1  0  0  0  0
  2  3  1  0  0  0  0
  2 13  1  0  0  0  0
  2 18  1  0  0  0  0
  3  4  1  0  0  0  0
  3 19  1  0  0  0  0
  3 20  1  0  0  0  0
  4  5  2  0  0  0  0
  4  9  1  0  0  0  0
  5  6  1  0  0  0  0
  5 21  1  0  0  0  0
  6  7  2  0  0  0  0
  6 12  1  0  0  0  0
  7  8  1  0  0  0  0
  7 10  1  0  0  0  0
  8  9  2  0  0  0  0
  8 22  1  0  0  0  0
  9 23  1  0  0  0  0
 10 11  1  0  0  0  0
 11 12  1  0  0  0  0
 11 24  1  0  0  0  0
 11 25  1  0  0  0  0
 13 14  2  0  0  0  0
 13 26  1  0  0  0  0
M  END
$$$$
