
 OpenBabel07202215583D

 23 22  0  0  0  0  0  0  0  0999 V2000
    0.9897   -0.0580    0.0865 C   0  0  0  0  0  0  0  0  0  0  0  0
    2.5169   -0.0546    0.0584 C   0  0  0  0  0  0  0  0  0  0  0  0
    3.0001   -0.4857   -1.3288 C   0  0  0  0  0  0  0  0  0  0  0  0
    3.0613    1.3333    0.4418 C   0  0  0  0  0  0  0  0  0  0  0  0
    4.5871    1.3461    0.4632 C   0  0  0  0  0  0  0  0  0  0  0  0
    5.0753    2.6392    0.8356 O   0  0  0  0  0  0  0  0  0  0  0  0
    6.4067    2.8928    0.8609 C   0  0  0  0  0  0  0  0  0  0  0  0
    7.3761    1.7784    0.5614 C   0  0  0  0  0  0  0  0  0  0  0  0
    6.8208    4.0179    1.1380 O   0  0  0  0  0  0  0  0  0  0  0  0
    0.6018   -1.0515   -0.1640 H   0  0  0  0  0  0  0  0  0  0  0  0
    0.5824    0.6557   -0.6374 H   0  0  0  0  0  0  0  0  0  0  0  0
    0.6135    0.2089    1.0791 H   0  0  0  0  0  0  0  0  0  0  0  0
    2.8738   -0.7875    0.7942 H   0  0  0  0  0  0  0  0  0  0  0  0
    2.6787    0.2328   -2.0904 H   0  0  0  0  0  0  0  0  0  0  0  0
    2.6059   -1.4711   -1.5933 H   0  0  0  0  0  0  0  0  0  0  0  0
    4.0900   -0.5635   -1.3749 H   0  0  0  0  0  0  0  0  0  0  0  0
    2.6823    1.6294    1.4289 H   0  0  0  0  0  0  0  0  0  0  0  0
    2.6945    2.0959   -0.2570 H   0  0  0  0  0  0  0  0  0  0  0  0
    4.9709    1.1226   -0.5352 H   0  0  0  0  0  0  0  0  0  0  0  0
    4.9396    0.6069    1.1904 H   0  0  0  0  0  0  0  0  0  0  0  0
    6.9192    0.8224    0.3111 H   0  0  0  0  0  0  0  0  0  0  0  0
    8.0032    1.6136    1.4418 H   0  0  0  0  0  0  0  0  0  0  0  0
    7.9976    2.0692   -0.2902 H   0  0  0  0  0  0  0  0  0  0  0  0
  1  2  1  0  0  0  0
  1 10  1  0  0  0  0
  1 11  1  0  0  0  0
  1 12  1  0  0  0  0
  2  3  1  0  0  0  0
  2  4  1  0  0  0  0
  2 13  1  0  0  0  0
  3 14  1  0  0  0  0
  3 15  1  0  0  0  0
  3 16  1  0  0  0  0
  4  5  1  0  0  0  0
  4 17  1  0  0  0  0
  4 18  1  0  0  0  0
  5  6  1  0  0  0  0
  5 19  1  0  0  0  0
  5 20  1  0  0  0  0
  6  7  1  0  0  0  0
  7  8  1  0  0  0  0
  7  9  2  0  0  0  0
  8 21  1  0  0  0  0
  8 22  1  0  0  0  0
  8 23  1  0  0  0  0
M  END
$$$$
