
 OpenBabel07202215583D

 12 11  0  0  0  0  0  0  0  0999 V2000
    0.9814    0.0243   -0.0915 C   0  0  0  0  0  0  0  0  0  0  0  0
    2.4813    0.0465   -0.0732 C   0  0  0  0  0  0  0  0  0  0  0  0
    3.1052    0.8618    0.5974 O   0  0  0  0  0  0  0  0  0  0  0  0
    3.2432   -0.9839   -0.9207 C   0  0  0  0  0  0  0  0  0  0  0  0
    2.4744   -1.9811   -1.7408 C   0  0  0  0  0  0  0  0  0  0  0  0
    4.4704   -0.9793   -0.9169 O   0  0  0  0  0  0  0  0  0  0  0  0
    0.6023    0.8173    0.5608 H   0  0  0  0  0  0  0  0  0  0  0  0
    0.6133   -0.9312    0.2899 H   0  0  0  0  0  0  0  0  0  0  0  0
    0.6133    0.2141   -1.1025 H   0  0  0  0  0  0  0  0  0  0  0  0
    1.3945   -1.8753   -1.6538 H   0  0  0  0  0  0  0  0  0  0  0  0
    2.7429   -2.9891   -1.4123 H   0  0  0  0  0  0  0  0  0  0  0  0
    2.7429   -1.8533   -2.7932 H   0  0  0  0  0  0  0  0  0  0  0  0
  1  2  1  0  0  0  0
  1  7  1  0  0  0  0
  1  8  1  0  0  0  0
  1  9  1  0  0  0  0
  2  3  2  0  0  0  0
  2  4  1  0  0  0  0
  4  5  1  0  0  0  0
  4  6  2  0  0  0  0
  5 10  1  0  0  0  0
  5 11  1  0  0  0  0
  5 12  1  0  0  0  0
M  END
$$$$
