
 OpenBabel07202215583D

 30 30  0  0  0  0  0  0  0  0999 V2000
    1.0626    0.0436   -0.0704 C   0  0  0  0  0  0  0  0  0  0  0  0
    2.6061    0.0399   -0.0719 C   0  0  0  0  0  0  0  0  0  0  0  0
    3.0910   -1.3978   -0.3422 C   0  0  0  0  0  0  0  0  0  0  0  0
    3.1049    0.9259   -1.2347 C   0  0  0  0  0  0  0  0  0  0  0  0
    3.0627    0.5762    1.2908 C   0  0  0  0  0  0  0  0  0  0  0  0
    3.4034   -0.2692    2.3591 C   0  0  0  0  0  0  0  0  0  0  0  0
    3.6066    0.2414    3.6457 C   0  0  0  0  0  0  0  0  0  0  0  0
    3.5679    1.6145    3.8754 C   0  0  0  0  0  0  0  0  0  0  0  0
    3.8380    2.0172    5.1565 O   0  0  0  0  0  0  0  0  0  0  0  0
    3.9307    3.4271    5.3330 C   0  0  0  0  0  0  0  0  0  0  0  0
    4.3502    3.7278    6.7450 C   0  0  0  0  0  0  0  0  0  0  0  0
    4.4617    4.8784    7.1756 O   0  0  0  0  0  0  0  0  0  0  0  0
    3.2727    2.4676    2.8165 C   0  0  0  0  0  0  0  0  0  0  0  0
    3.0198    1.9546    1.5471 C   0  0  0  0  0  0  0  0  0  0  0  0
    0.6628   -0.3239   -1.0215 H   0  0  0  0  0  0  0  0  0  0  0  0
    0.6610    1.0521    0.0881 H   0  0  0  0  0  0  0  0  0  0  0  0
    0.6638   -0.5925    0.7292 H   0  0  0  0  0  0  0  0  0  0  0  0
    2.7492   -1.7557   -1.3194 H   0  0  0  0  0  0  0  0  0  0  0  0
    2.7050   -2.1062    0.3992 H   0  0  0  0  0  0  0  0  0  0  0  0
    4.1857   -1.4526   -0.3253 H   0  0  0  0  0  0  0  0  0  0  0  0
    2.7702    0.5356   -2.2019 H   0  0  0  0  0  0  0  0  0  0  0  0
    4.1994    0.9796   -1.2463 H   0  0  0  0  0  0  0  0  0  0  0  0
    2.7246    1.9512   -1.1761 H   0  0  0  0  0  0  0  0  0  0  0  0
    3.4954   -1.3439    2.2282 H   0  0  0  0  0  0  0  0  0  0  0  0
    3.7808   -0.4482    4.4678 H   0  0  0  0  0  0  0  0  0  0  0  0
    2.9498    3.8887    5.1760 H   0  0  0  0  0  0  0  0  0  0  0  0
    4.6942    3.8525    4.6704 H   0  0  0  0  0  0  0  0  0  0  0  0
    4.5721    2.8621    7.3870 H   0  0  0  0  0  0  0  0  0  0  0  0
    3.1991    3.5428    2.9346 H   0  0  0  0  0  0  0  0  0  0  0  0
    2.7582    2.6658    0.7693 H   0  0  0  0  0  0  0  0  0  0  0  0
  1  2  1  0  0  0  0
  1 15  1  0  0  0  0
  1 16  1  0  0  0  0
  1 17  1  0  0  0  0
  2  3  1  0  0  0  0
  2  4  1  0  0  0  0
  2  5  1  0  0  0  0
  3 18  1  0  0  0  0
  3 19  1  0  0  0  0
  3 20  1  0  0  0  0
  4 21  1  0  0  0  0
  4 22  1  0  0  0  0
  4 23  1  0  0  0  0
  5  6  1  0  0  0  0
  5 14  2  0  0  0  0
  6  7  2  0  0  0  0
  6 24  1  0  0  0  0
  7  8  1  0  0  0  0
  7 25  1  0  0  0  0
  8  9  1  0  0  0  0
  8 13  2  0  0  0  0
  9 10  1  0  0  0  0
 10 11  1  0  0  0  0
 10 26  1  0  0  0  0
 10 27  1  0  0  0  0
 11 12  2  0  0  0  0
 11 28  1  0  0  0  0
 13 14  1  0  0  0  0
 13 29  1  0  0  0  0
 14 30  1  0  0  0  0
M  END
$$$$
