
 OpenBabel07202215583D

 42 42  0  0  0  0  0  0  0  0999 V2000
    0.8604    0.0259   -0.0036 C   0  0  0  0  0  0  0  0  0  0  0  0
    2.3571    0.1115    0.0694 C   0  0  0  0  0  0  0  0  0  0  0  0
    2.7977    1.4638    0.6462 C   0  0  0  0  0  0  0  0  0  0  0  0
    4.3006    1.4466    0.5989 C   0  0  0  0  0  0  0  0  0  0  0  0
    5.0849    2.6824    0.9476 C   0  0  0  0  0  0  0  0  0  0  0  0
    6.6228    2.6102    0.9513 C   0  0  0  0  0  0  0  0  0  0  0  0
    7.3778    1.5585    0.4767 C   0  0  0  0  0  0  0  0  0  0  0  0
    6.9027    0.3432   -0.2037 C   0  0  0  0  0  0  0  0  0  0  0  0
    7.0676   -0.9287    0.3641 C   0  0  0  0  0  0  0  0  0  0  0  0
    6.3596   -2.0205   -0.1520 C   0  0  0  0  0  0  0  0  0  0  0  0
    5.4004   -1.8329   -1.1422 C   0  0  0  0  0  0  0  0  0  0  0  0
    5.3033   -0.5921   -1.7659 C   0  0  0  0  0  0  0  0  0  0  0  0
    6.1459    0.4525   -1.3751 C   0  0  0  0  0  0  0  0  0  0  0  0
    7.3187    3.8925    1.4784 C   0  0  0  0  0  0  0  0  0  0  0  0
    7.0100    4.1551    2.8497 O   0  0  0  0  0  0  0  0  0  0  0  0
    5.7479    4.7449    3.1058 C   0  0  0  0  0  0  0  0  0  0  0  0
    8.7459    3.7457    1.3503 O   0  0  0  0  0  0  0  0  0  0  0  0
    9.4777    4.8885    1.7666 C   0  0  0  0  0  0  0  0  0  0  0  0
    0.5616   -0.9473   -0.4003 H   0  0  0  0  0  0  0  0  0  0  0  0
    0.4861    0.8060   -0.6725 H   0  0  0  0  0  0  0  0  0  0  0  0
    0.4290    0.1633    0.9893 H   0  0  0  0  0  0  0  0  0  0  0  0
    2.7428   -0.0091   -0.9499 H   0  0  0  0  0  0  0  0  0  0  0  0
    2.7717   -0.7176    0.6589 H   0  0  0  0  0  0  0  0  0  0  0  0
    2.4228    1.6188    1.6601 H   0  0  0  0  0  0  0  0  0  0  0  0
    2.4321    2.2738    0.0048 H   0  0  0  0  0  0  0  0  0  0  0  0
    4.4343    1.3349   -0.4571 H   0  0  0  0  0  0  0  0  0  0  0  0
    4.6670    0.5958    1.1860 H   0  0  0  0  0  0  0  0  0  0  0  0
    4.7169    2.8550    1.9434 H   0  0  0  0  0  0  0  0  0  0  0  0
    4.7693    3.5198    0.3121 H   0  0  0  0  0  0  0  0  0  0  0  0
    8.4581    1.5951    0.5612 H   0  0  0  0  0  0  0  0  0  0  0  0
    7.6909   -1.0637    1.2418 H   0  0  0  0  0  0  0  0  0  0  0  0
    6.5094   -3.0147    0.2646 H   0  0  0  0  0  0  0  0  0  0  0  0
    4.7131   -2.6296   -1.4101 H   0  0  0  0  0  0  0  0  0  0  0  0
    4.4879   -0.3928   -2.4579 H   0  0  0  0  0  0  0  0  0  0  0  0
    5.9924    1.4408   -1.8166 H   0  0  0  0  0  0  0  0  0  0  0  0
    7.0303    4.7413    0.8400 H   0  0  0  0  0  0  0  0  0  0  0  0
    5.7559    5.2159    4.0892 H   0  0  0  0  0  0  0  0  0  0  0  0
    4.9929    3.9761    3.2268 H   0  0  0  0  0  0  0  0  0  0  0  0
    5.4495    5.4703    2.3423 H   0  0  0  0  0  0  0  0  0  0  0  0
   10.5459    4.6701    1.6616 H   0  0  0  0  0  0  0  0  0  0  0  0
    9.2899    5.1204    2.8190 H   0  0  0  0  0  0  0  0  0  0  0  0
    9.2403    5.7515    1.1383 H   0  0  0  0  0  0  0  0  0  0  0  0
  1  2  1  0  0  0  0
  1 19  1  0  0  0  0
  1 20  1  0  0  0  0
  1 21  1  0  0  0  0
  2  3  1  0  0  0  0
  2 22  1  0  0  0  0
  2 23  1  0  0  0  0
  3  4  1  0  0  0  0
  3 24  1  0  0  0  0
  3 25  1  0  0  0  0
  4  5  1  0  0  0  0
  4 26  1  0  0  0  0
  4 27  1  0  0  0  0
  5  6  1  0  0  0  0
  5 28  1  0  0  0  0
  5 29  1  0  0  0  0
  6  7  2  0  0  0  0
  6 14  1  0  0  0  0
  7  8  1  0  0  0  0
  7 30  1  0  0  0  0
  8  9  2  0  0  0  0
  8 13  1  0  0  0  0
  9 10  1  0  0  0  0
  9 31  1  0  0  0  0
 10 11  2  0  0  0  0
 10 32  1  0  0  0  0
 11 12  1  0  0  0  0
 11 33  1  0  0  0  0
 12 13  2  0  0  0  0
 12 34  1  0  0  0  0
 13 35  1  0  0  0  0
 14 15  1  0  0  0  0
 14 17  1  0  0  0  0
 14 36  1  0  0  0  0
 15 16  1  0  0  0  0
 16 37  1  0  0  0  0
 16 38  1  0  0  0  0
 16 39  1  0  0  0  0
 17 18  1  0  0  0  0
 18 40  1  0  0  0  0
 18 41  1  0  0  0  0
 18 42  1  0  0  0  0
M  END
$$$$
