
 OpenBabel07222214433D

 24 25  0  0  0  0  0  0  0  0999 V2000
    1.1283   -0.0644   -0.0275 C   0  0  0  0  0  0  0  0  0  0  0  0
    2.6364   -0.0308   -0.0617 C   0  0  0  0  0  0  0  0  0  0  0  0
    3.2491    0.6664   -0.8684 O   0  0  0  0  0  0  0  0  0  0  0  0
    3.3518   -0.8868    0.9266 C   0  0  0  0  0  0  0  0  0  0  0  0
    4.6944   -0.9331    0.9787 C   0  0  0  0  0  0  0  0  0  0  0  0
    5.3942   -1.7852    1.9531 C   0  0  0  0  0  0  0  0  0  0  0  0
    6.4430   -1.2629    2.7431 C   0  0  0  0  0  0  0  0  0  0  0  0
    7.0429   -2.0384    3.7482 C   0  0  0  0  0  0  0  0  0  0  0  0
    6.5916   -3.3292    3.9218 C   0  0  0  0  0  0  0  0  0  0  0  0
    7.0202   -4.2118    4.8639 O   0  0  0  0  0  0  0  0  0  0  0  0
    6.1436   -5.3301    4.6067 C   0  0  0  0  0  0  0  0  0  0  0  0
    5.3130   -5.1470    3.4419 O   0  0  0  0  0  0  0  0  0  0  0  0
    5.6129   -3.8605    3.1185 C   0  0  0  0  0  0  0  0  0  0  0  0
    5.0092   -3.1243    2.1218 C   0  0  0  0  0  0  0  0  0  0  0  0
    0.7334    0.6037   -0.7995 H   0  0  0  0  0  0  0  0  0  0  0  0
    0.7622    0.2804    0.9434 H   0  0  0  0  0  0  0  0  0  0  0  0
    0.7649   -1.0754   -0.2320 H   0  0  0  0  0  0  0  0  0  0  0  0
    2.7313   -1.4654    1.6018 H   0  0  0  0  0  0  0  0  0  0  0  0
    5.3063   -0.3277    0.3129 H   0  0  0  0  0  0  0  0  0  0  0  0
    6.7820   -0.2380    2.6008 H   0  0  0  0  0  0  0  0  0  0  0  0
    7.8230   -1.6329    4.3836 H   0  0  0  0  0  0  0  0  0  0  0  0
    5.4907   -5.4732    5.4767 H   0  0  0  0  0  0  0  0  0  0  0  0
    6.7488   -6.2337    4.4725 H   0  0  0  0  0  0  0  0  0  0  0  0
    4.2413   -3.5772    1.5052 H   0  0  0  0  0  0  0  0  0  0  0  0
  1  2  1  0  0  0  0
  1 15  1  0  0  0  0
  1 16  1  0  0  0  0
  1 17  1  0  0  0  0
  2  3  2  0  0  0  0
  2  4  1  0  0  0  0
  4  5  2  0  0  0  0
  4 18  1  0  0  0  0
  5  6  1  0  0  0  0
  5 19  1  0  0  0  0
  6  7  1  0  0  0  0
  6 14  2  0  0  0  0
  7  8  2  0  0  0  0
  7 20  1  0  0  0  0
  8  9  1  0  0  0  0
  8 21  1  0  0  0  0
  9 10  1  0  0  0  0
  9 13  2  0  0  0  0
 10 11  1  0  0  0  0
 11 12  1  0  0  0  0
 11 22  1  0  0  0  0
 11 23  1  0  0  0  0
 12 13  1  0  0  0  0
 13 14  1  0  0  0  0
 14 24  1  0  0  0  0
M  END
$$$$
