
 OpenBabel07202215583D

 17 17  0  0  0  0  0  0  0  0999 V2000
    0.9693    0.0714    0.0545 O   0  0  0  0  0  0  0  0  0  0  0  0
    2.2010    0.0847    0.0615 C   0  0  0  0  0  0  0  0  0  0  0  0
    3.0229    0.9744   -0.8408 C   0  0  0  0  0  0  0  0  0  0  0  0
    4.5079    0.7966   -0.6343 C   0  0  0  0  0  0  0  0  0  0  0  0
    5.0819   -0.4821   -0.5720 C   0  0  0  0  0  0  0  0  0  0  0  0
    6.4196   -0.6376   -0.2142 C   0  0  0  0  0  0  0  0  0  0  0  0
    7.2261    0.4829   -0.0333 C   0  0  0  0  0  0  0  0  0  0  0  0
    6.6872    1.7599   -0.1762 C   0  0  0  0  0  0  0  0  0  0  0  0
    5.3324    1.9178   -0.4695 C   0  0  0  0  0  0  0  0  0  0  0  0
    2.7520   -0.5714    0.7558 H   0  0  0  0  0  0  0  0  0  0  0  0
    2.7382    2.0058   -0.6003 H   0  0  0  0  0  0  0  0  0  0  0  0
    2.7655    0.7717   -1.8850 H   0  0  0  0  0  0  0  0  0  0  0  0
    4.4852   -1.3719   -0.7638 H   0  0  0  0  0  0  0  0  0  0  0  0
    6.8276   -1.6335   -0.0624 H   0  0  0  0  0  0  0  0  0  0  0  0
    8.2768    0.3595    0.2143 H   0  0  0  0  0  0  0  0  0  0  0  0
    7.3171    2.6343   -0.0349 H   0  0  0  0  0  0  0  0  0  0  0  0
    4.9234    2.9230   -0.5511 H   0  0  0  0  0  0  0  0  0  0  0  0
  1  2  2  0  0  0  0
  2  3  1  0  0  0  0
  2 10  1  0  0  0  0
  3  4  1  0  0  0  0
  3 11  1  0  0  0  0
  3 12  1  0  0  0  0
  4  5  1  0  0  0  0
  4  9  2  0  0  0  0
  5  6  2  0  0  0  0
  5 13  1  0  0  0  0
  6  7  1  0  0  0  0
  6 14  1  0  0  0  0
  7  8  2  0  0  0  0
  7 15  1  0  0  0  0
  8  9  1  0  0  0  0
  8 16  1  0  0  0  0
  9 17  1  0  0  0  0
M  END
$$$$
