
 OpenBabel07122215493D

 46 49  0  0  1  0  0  0  0  0999 V2000
    0.9283    0.2095   -0.0867 C   0  0  0  0  0  0  0  0  0  0  0  0
    2.4457    0.3274    0.0694 C   0  0  2  0  0  0  0  0  0  0  0  0
    2.9138   -0.1770    1.4422 C   0  0  0  0  0  0  0  0  0  0  0  0
    2.4462   -1.5244    1.8202 C   0  0  0  0  0  0  0  0  0  0  0  0
    3.0261   -2.5549    0.8712 C   0  0  1  0  0  0  0  0  0  0  0  0
    2.9408   -2.0029   -0.6592 C   0  0  1  0  0  0  0  0  0  0  0  0
    3.2534   -3.1806   -1.6191 C   0  0  0  0  0  0  0  0  0  0  0  0
    2.8552   -4.5791   -1.0604 C   0  0  0  0  0  0  0  0  0  0  0  0
    3.5116   -4.8324    0.3179 C   0  0  0  0  0  0  0  0  0  0  0  0
    4.3498   -5.8442    0.6312 C   0  0  0  0  0  0  0  0  0  0  0  0
    4.1000   -6.2911    2.0281 C   0  0  0  0  0  0  0  0  0  0  0  0
    4.7096   -5.9810    3.0806 O   0  0  0  0  0  0  0  0  0  0  0  0
    2.7907   -6.9307    2.0722 C   0  0  0  0  0  0  0  0  0  0  0  0
    1.8163   -5.4985    1.6725 C   0  0  0  0  0  0  0  0  0  0  0  0
    2.7717   -4.1211    1.4306 C   0  0  2  0  0  0  0  0  0  0  0  0
    3.1192   -3.9287    2.9557 C   0  0  0  0  0  0  0  0  0  0  0  0
    3.3136   -0.2721   -1.1203 C   0  0  2  0  0  0  0  0  0  0  0  0
    4.2529    1.2544   -1.3341 C   0  0  0  0  0  0  0  0  0  0  0  0
    4.2411    1.7788    0.0419 C   0  0  0  0  0  0  0  0  0  0  0  0
    2.9084    1.7475    0.2515 C   0  0  0  0  0  0  0  0  0  0  0  0
    0.5268   -0.7727    0.1871 H   0  0  0  0  0  0  0  0  0  0  0  0
    0.6049    0.4039   -1.1123 H   0  0  0  0  0  0  0  0  0  0  0  0
    0.4409    0.9184    0.5868 H   0  0  0  0  0  0  0  0  0  0  0  0
    2.6111    0.5167    2.2366 H   0  0  0  0  0  0  0  0  0  0  0  0
    4.0139   -0.2391    1.5127 H   0  0  0  0  0  0  0  0  0  0  0  0
    1.3652   -1.6117    1.9153 H   0  0  0  0  0  0  0  0  0  0  0  0
    2.8800   -1.5741    2.8182 H   0  0  0  0  0  0  0  0  0  0  0  0
    4.1259   -2.4793    0.9904 H   0  0  0  0  0  0  0  0  0  0  0  0
    1.8469   -1.9638   -0.7999 H   0  0  0  0  0  0  0  0  0  0  0  0
    4.3207   -3.2167   -1.8084 H   0  0  0  0  0  0  0  0  0  0  0  0
    2.7129   -3.0410   -2.5669 H   0  0  0  0  0  0  0  0  0  0  0  0
    3.1145   -5.3724   -1.7749 H   0  0  0  0  0  0  0  0  0  0  0  0
    1.7478   -4.6560   -0.9991 H   0  0  0  0  0  0  0  0  0  0  0  0
    4.4442   -6.6454   -0.0979 H   0  0  0  0  0  0  0  0  0  0  0  0
    2.7772   -7.4329    3.0612 H   0  0  0  0  0  0  0  0  0  0  0  0
    3.0017   -7.7367    1.3232 H   0  0  0  0  0  0  0  0  0  0  0  0
    1.1266   -5.3120    2.5039 H   0  0  0  0  0  0  0  0  0  0  0  0
    1.1661   -5.7201    0.8200 H   0  0  0  0  0  0  0  0  0  0  0  0
    2.5721   -3.1323    3.4553 H   0  0  0  0  0  0  0  0  0  0  0  0
    4.1859   -3.7789    3.1075 H   0  0  0  0  0  0  0  0  0  0  0  0
    2.7178   -4.7161    3.5987 H   0  0  0  0  0  0  0  0  0  0  0  0
    3.0770   -0.3604   -2.1921 H   0  0  0  0  0  0  0  0  0  0  0  0
    3.7071    2.1284   -1.8349 H   0  0  0  0  0  0  0  0  0  0  0  0
    5.2750    1.3992   -1.7178 H   0  0  0  0  0  0  0  0  0  0  0  0
    4.9857    1.1113    0.5009 H   0  0  0  0  0  0  0  0  0  0  0  0
    2.2637    2.4055   -0.3384 H   0  0  0  0  0  0  0  0  0  0  0  0
  1 21  1  0  0  0  0
  1 22  1  0  0  0  0
  1 23  1  0  0  0  0
  2  3  1  0  0  0  0
  2 17  1  0  0  0  0
  2 20  1  0  0  0  0
  2  1  1  1  0  0  0
  3  4  1  0  0  0  0
  3 24  1  0  0  0  0
  3 25  1  0  0  0  0
  4  5  1  0  0  0  0
  4 26  1  0  0  0  0
  4 27  1  0  0  0  0
  5  6  1  0  0  0  0
  5 15  1  0  0  0  0
  5 28  1  6  0  0  0
  6  7  1  0  0  0  0
  6 17  1  0  0  0  0
  6 29  1  1  0  0  0
  7  8  1  0  0  0  0
  7 30  1  0  0  0  0
  7 31  1  0  0  0  0
  8  9  1  0  0  0  0
  8 32  1  0  0  0  0
  8 33  1  0  0  0  0
  9 10  2  0  0  0  0
  9 15  1  0  0  0  0
 10 11  1  0  0  0  0
 10 34  1  0  0  0  0
 11 13  1  0  0  0  0
 11 12  2  0  0  0  0
 13 14  1  0  0  0  0
 13 35  1  0  0  0  0
 13 36  1  0  0  0  0
 14 15  1  0  0  0  0
 14 37  1  0  0  0  0
 14 38  1  0  0  0  0
 15 16  1  1  0  0  0
 16 39  1  0  0  0  0
 16 40  1  0  0  0  0
 16 41  1  0  0  0  0
 17 18  1  0  0  0  0
 17 42  1  6  0  0  0
 18 19  1  0  0  0  0
 18 43  1  0  0  0  0
 18 44  1  0  0  0  0
 19 20  2  0  0  0  0
 19 45  1  0  0  0  0
 20 46  1  0  0  0  0
M  END
$$$$
