
 OpenBabel07122215493D

 27 26  0  0  0  0  0  0  0  0999 V2000
    1.0207   -0.0011   -0.0851 C   0  0  0  0  0  0  0  0  0  0  0  0
    2.5393    0.0007   -0.0970 C   0  0  0  0  0  0  0  0  0  0  0  0
    3.0698    0.2162   -1.5119 C   0  0  0  0  0  0  0  0  0  0  0  0
    4.5988    0.2191   -1.5313 C   0  0  0  0  0  0  0  0  0  0  0  0
    5.1289    0.4301   -2.9169 C   0  0  0  0  0  0  0  0  0  0  0  0
    6.4386    0.4743   -3.2069 C   0  0  0  0  0  0  0  0  0  0  0  0
    6.8730    0.6894   -4.6198 C   0  0  0  0  0  0  0  0  0  0  0  0
    6.0325    0.8250   -5.5102 O   0  0  0  0  0  0  0  0  0  0  0  0
    8.3813    0.7281   -4.8736 C   0  0  0  0  0  0  0  0  0  0  0  0
    8.6999    0.9495   -6.3277 C   0  0  0  0  0  0  0  0  0  0  0  0
    9.9436    1.0241   -6.8171 C   0  0  0  0  0  0  0  0  0  0  0  0
    0.6478   -0.1559    0.9314 H   0  0  0  0  0  0  0  0  0  0  0  0
    0.6281   -0.8017   -0.7202 H   0  0  0  0  0  0  0  0  0  0  0  0
    0.6281    0.9522   -0.4531 H   0  0  0  0  0  0  0  0  0  0  0  0
    2.9077   -0.9527    0.2992 H   0  0  0  0  0  0  0  0  0  0  0  0
    2.9077    0.7929    0.5651 H   0  0  0  0  0  0  0  0  0  0  0  0
    2.6896    1.1682   -1.9048 H   0  0  0  0  0  0  0  0  0  0  0  0
    2.6896   -0.5758   -2.1703 H   0  0  0  0  0  0  0  0  0  0  0  0
    4.9667   -0.7380   -1.1433 H   0  0  0  0  0  0  0  0  0  0  0  0
    4.9667    1.0173   -0.8760 H   0  0  0  0  0  0  0  0  0  0  0  0
    4.4002    0.5523   -3.7191 H   0  0  0  0  0  0  0  0  0  0  0  0
    7.2009    0.3585   -2.4465 H   0  0  0  0  0  0  0  0  0  0  0  0
    8.8083   -0.2272   -4.5470 H   0  0  0  0  0  0  0  0  0  0  0  0
    8.8083    1.5429   -4.2774 H   0  0  0  0  0  0  0  0  0  0  0  0
    7.8668    1.0554   -7.0230 H   0  0  0  0  0  0  0  0  0  0  0  0
   10.8162    0.9272   -6.1808 H   0  0  0  0  0  0  0  0  0  0  0  0
   10.1051    1.1858   -7.8793 H   0  0  0  0  0  0  0  0  0  0  0  0
  1  2  1  0  0  0  0
  1 12  1  0  0  0  0
  1 13  1  0  0  0  0
  1 14  1  0  0  0  0
  2  3  1  0  0  0  0
  2 15  1  0  0  0  0
  2 16  1  0  0  0  0
  3  4  1  0  0  0  0
  3 17  1  0  0  0  0
  3 18  1  0  0  0  0
  4  5  1  0  0  0  0
  4 19  1  0  0  0  0
  4 20  1  0  0  0  0
  5  6  2  0  0  0  0
  5 21  1  0  0  0  0
  6  7  1  0  0  0  0
  6 22  1  0  0  0  0
  7  8  2  0  0  0  0
  7  9  1  0  0  0  0
  9 10  1  0  0  0  0
  9 23  1  0  0  0  0
  9 24  1  0  0  0  0
 10 11  2  0  0  0  0
 10 25  1  0  0  0  0
 11 26  1  0  0  0  0
 11 27  1  0  0  0  0
M  END
$$$$
