
 OpenBabel07222214443D

 29 29  0  0  0  0  0  0  0  0999 V2000
    0.9566   -0.0822    0.0664 C   0  0  0  0  0  0  0  0  0  0  0  0
    2.4996   -0.0851    0.0801 C   0  0  0  0  0  0  0  0  0  0  0  0
    2.9853   -1.5189   -0.2111 C   0  0  0  0  0  0  0  0  0  0  0  0
    3.0075    0.8111   -1.0758 C   0  0  0  0  0  0  0  0  0  0  0  0
    2.9713    0.4511    1.4409 C   0  0  0  0  0  0  0  0  0  0  0  0
    3.5035   -0.3639    2.4620 C   0  0  0  0  0  0  0  0  0  0  0  0
    3.8755    0.1471    3.7281 C   0  0  0  0  0  0  0  0  0  0  0  0
    3.7125    1.5151    3.9580 C   0  0  0  0  0  0  0  0  0  0  0  0
    3.1913    2.3328    2.9602 C   0  0  0  0  0  0  0  0  0  0  0  0
    2.8205    1.8130    1.7267 C   0  0  0  0  0  0  0  0  0  0  0  0
    3.9931    2.2258    5.0898 O   0  0  0  0  0  0  0  0  0  0  0  0
    4.3446   -0.8350    4.5600 O   0  0  0  0  0  0  0  0  0  0  0  0
    4.7284   -0.5022    5.8796 C   0  0  0  0  0  0  0  0  0  0  0  0
    0.5669   -0.4485   -0.8901 H   0  0  0  0  0  0  0  0  0  0  0  0
    0.5499    0.9247    0.2186 H   0  0  0  0  0  0  0  0  0  0  0  0
    0.5516   -0.7204    0.8606 H   0  0  0  0  0  0  0  0  0  0  0  0
    2.6428   -1.8625   -1.1940 H   0  0  0  0  0  0  0  0  0  0  0  0
    2.6035   -2.2352    0.5248 H   0  0  0  0  0  0  0  0  0  0  0  0
    4.0803   -1.5737   -0.2035 H   0  0  0  0  0  0  0  0  0  0  0  0
    2.6717    0.4325   -2.0479 H   0  0  0  0  0  0  0  0  0  0  0  0
    4.1026    0.8552   -1.0893 H   0  0  0  0  0  0  0  0  0  0  0  0
    2.6393    1.8404   -1.0060 H   0  0  0  0  0  0  0  0  0  0  0  0
    3.6313   -1.4333    2.3021 H   0  0  0  0  0  0  0  0  0  0  0  0
    3.0612    3.3943    3.1521 H   0  0  0  0  0  0  0  0  0  0  0  0
    2.3949    2.4996    1.0015 H   0  0  0  0  0  0  0  0  0  0  0  0
    4.4153    1.6873    5.7580 H   0  0  0  0  0  0  0  0  0  0  0  0
    5.0424   -1.4094    6.4027 H   0  0  0  0  0  0  0  0  0  0  0  0
    3.8821   -0.0871    6.4373 H   0  0  0  0  0  0  0  0  0  0  0  0
    5.5926    0.1701    5.8655 H   0  0  0  0  0  0  0  0  0  0  0  0
  1  2  1  0  0  0  0
  1 14  1  0  0  0  0
  1 15  1  0  0  0  0
  1 16  1  0  0  0  0
  2  3  1  0  0  0  0
  2  4  1  0  0  0  0
  2  5  1  0  0  0  0
  3 17  1  0  0  0  0
  3 18  1  0  0  0  0
  3 19  1  0  0  0  0
  4 20  1  0  0  0  0
  4 21  1  0  0  0  0
  4 22  1  0  0  0  0
  5  6  2  0  0  0  0
  5 10  1  0  0  0  0
  6  7  1  0  0  0  0
  6 23  1  0  0  0  0
  7  8  2  0  0  0  0
  7 12  1  0  0  0  0
  8  9  1  0  0  0  0
  8 11  1  0  0  0  0
  9 10  2  0  0  0  0
  9 24  1  0  0  0  0
 10 25  1  0  0  0  0
 11 26  1  0  0  0  0
 12 13  1  0  0  0  0
 13 27  1  0  0  0  0
 13 28  1  0  0  0  0
 13 29  1  0  0  0  0
M  END
$$$$
