
 OpenBabel07202215583D

 24 25  0  0  0  0  0  0  0  0999 V2000
    0.9521   -0.0902    0.0723 O   0  0  0  0  0  0  0  0  0  0  0  0
    2.1806   -0.0606    0.0384 C   0  0  0  0  0  0  0  0  0  0  0  0
    2.9789   -0.9383    0.9236 C   0  0  0  0  0  0  0  0  0  0  0  0
    4.1670   -0.4704    1.4971 C   0  0  0  0  0  0  0  0  0  0  0  0
    5.0194   -1.3638    2.1413 C   0  0  0  0  0  0  0  0  0  0  0  0
    4.6403   -2.6968    2.2973 C   0  0  0  0  0  0  0  0  0  0  0  0
    3.4129   -3.1419    1.8016 C   0  0  0  0  0  0  0  0  0  0  0  0
    2.5757   -2.2618    1.1154 C   0  0  0  0  0  0  0  0  0  0  0  0
    2.8794    0.8607   -0.8922 C   0  0  0  0  0  0  0  0  0  0  0  0
    3.9774    0.4476   -1.6617 C   0  0  0  0  0  0  0  0  0  0  0  0
    4.6570    1.3786   -2.4516 C   0  0  0  0  0  0  0  0  0  0  0  0
    4.2010    2.6956   -2.5250 C   0  0  0  0  0  0  0  0  0  0  0  0
    3.0934    3.0967   -1.7770 C   0  0  0  0  0  0  0  0  0  0  0  0
    2.4343    2.1816   -0.9577 C   0  0  0  0  0  0  0  0  0  0  0  0
    4.4420    0.5796    1.4323 H   0  0  0  0  0  0  0  0  0  0  0  0
    5.9870   -1.0248    2.5023 H   0  0  0  0  0  0  0  0  0  0  0  0
    5.3021   -3.3895    2.8114 H   0  0  0  0  0  0  0  0  0  0  0  0
    3.1229   -4.1825    1.9240 H   0  0  0  0  0  0  0  0  0  0  0  0
    1.6304   -2.6119    0.7066 H   0  0  0  0  0  0  0  0  0  0  0  0
    4.3068   -0.5891   -1.6617 H   0  0  0  0  0  0  0  0  0  0  0  0
    5.5420    1.0827   -3.0109 H   0  0  0  0  0  0  0  0  0  0  0  0
    4.7038    3.4101   -3.1727 H   0  0  0  0  0  0  0  0  0  0  0  0
    2.7457    4.1251   -1.8244 H   0  0  0  0  0  0  0  0  0  0  0  0
    1.5809    2.4949   -0.3616 H   0  0  0  0  0  0  0  0  0  0  0  0
  1  2  2  0  0  0  0
  2  3  1  0  0  0  0
  2  9  1  0  0  0  0
  3  4  1  0  0  0  0
  3  8  2  0  0  0  0
  4  5  2  0  0  0  0
  4 15  1  0  0  0  0
  5  6  1  0  0  0  0
  5 16  1  0  0  0  0
  6  7  2  0  0  0  0
  6 17  1  0  0  0  0
  7  8  1  0  0  0  0
  7 18  1  0  0  0  0
  8 19  1  0  0  0  0
  9 10  1  0  0  0  0
  9 14  2  0  0  0  0
 10 11  2  0  0  0  0
 10 20  1  0  0  0  0
 11 12  1  0  0  0  0
 11 21  1  0  0  0  0
 12 13  2  0  0  0  0
 12 22  1  0  0  0  0
 13 14  1  0  0  0  0
 13 23  1  0  0  0  0
 14 24  1  0  0  0  0
M  END
$$$$
