
 OpenBabel07202215583D

 17 17  0  0  0  0  0  0  0  0999 V2000
    0.9373    0.0298   -0.0355 C   0  0  0  0  0  0  0  0  0  0  0  0
    2.4441    0.0107   -0.0638 C   0  0  0  0  0  0  0  0  0  0  0  0
    3.1088   -0.7668    0.6206 O   0  0  0  0  0  0  0  0  0  0  0  0
    3.1271    0.9672   -0.9664 C   0  0  0  0  0  0  0  0  0  0  0  0
    4.2304    0.5621   -1.7265 C   0  0  0  0  0  0  0  0  0  0  0  0
    4.9063    1.4983   -2.5145 C   0  0  0  0  0  0  0  0  0  0  0  0
    4.4509    2.8165   -2.5818 C   0  0  0  0  0  0  0  0  0  0  0  0
    3.3486    3.2151   -1.8282 C   0  0  0  0  0  0  0  0  0  0  0  0
    2.6934    2.2951   -1.0130 C   0  0  0  0  0  0  0  0  0  0  0  0
    0.5750   -0.7039    0.6903 H   0  0  0  0  0  0  0  0  0  0  0  0
    0.5508   -0.2363   -1.0232 H   0  0  0  0  0  0  0  0  0  0  0  0
    0.5572    1.0077    0.2681 H   0  0  0  0  0  0  0  0  0  0  0  0
    4.5661   -0.4730   -1.7106 H   0  0  0  0  0  0  0  0  0  0  0  0
    5.7958    1.2075   -3.0690 H   0  0  0  0  0  0  0  0  0  0  0  0
    4.9599    3.5382   -3.2161 H   0  0  0  0  0  0  0  0  0  0  0  0
    3.0091    4.2470   -1.8564 H   0  0  0  0  0  0  0  0  0  0  0  0
    1.8667    2.6358   -0.3985 H   0  0  0  0  0  0  0  0  0  0  0  0
  1  2  1  0  0  0  0
  1 10  1  0  0  0  0
  1 11  1  0  0  0  0
  1 12  1  0  0  0  0
  2  3  2  0  0  0  0
  2  4  1  0  0  0  0
  4  5  1  0  0  0  0
  4  9  2  0  0  0  0
  5  6  2  0  0  0  0
  5 13  1  0  0  0  0
  6  7  1  0  0  0  0
  6 14  1  0  0  0  0
  7  8  2  0  0  0  0
  7 15  1  0  0  0  0
  8  9  1  0  0  0  0
  8 16  1  0  0  0  0
  9 17  1  0  0  0  0
M  END
$$$$
