
 OpenBabel07222214433D

 23 23  0  0  0  0  0  0  0  0999 V2000
    1.0767    0.1771   -0.4766 C   0  0  0  0  0  0  0  0  0  0  0  0
    2.4801    0.1169   -0.1660 N   0  0  0  0  0  0  0  0  0  0  0  0
    3.0803    0.3850    1.0594 C   0  0  0  0  0  0  0  0  0  0  0  0
    4.3123    1.0880    0.9311 C   0  0  0  0  0  0  0  0  0  0  0  0
    5.1391    1.3854    2.0157 C   0  0  0  0  0  0  0  0  0  0  0  0
    4.7259    1.0444    3.2897 C   0  0  0  0  0  0  0  0  0  0  0  0
    3.5082    0.3806    3.4614 C   0  0  0  0  0  0  0  0  0  0  0  0
    2.6648    0.0335    2.3722 C   0  0  0  0  0  0  0  0  0  0  0  0
    1.4116   -0.6950    2.8026 C   0  0  0  0  0  0  0  0  0  0  0  0
    1.0189   -0.7509    3.9698 O   0  0  0  0  0  0  0  0  0  0  0  0
    0.7909   -1.2907    1.7801 O   0  0  0  0  0  0  0  0  0  0  0  0
   -0.6049   -1.6502    1.8383 C   0  0  0  0  0  0  0  0  0  0  0  0
    0.9014   -0.0514   -1.5300 H   0  0  0  0  0  0  0  0  0  0  0  0
    0.6454    1.1410   -0.2021 H   0  0  0  0  0  0  0  0  0  0  0  0
    0.4948   -0.5960   -0.0264 H   0  0  0  0  0  0  0  0  0  0  0  0
    3.0497   -0.4315   -0.8054 H   0  0  0  0  0  0  0  0  0  0  0  0
    4.6233    1.4445   -0.0525 H   0  0  0  0  0  0  0  0  0  0  0  0
    6.0971    1.8767    1.8608 H   0  0  0  0  0  0  0  0  0  0  0  0
    5.3416    1.2948    4.1504 H   0  0  0  0  0  0  0  0  0  0  0  0
    3.2214    0.1090    4.4773 H   0  0  0  0  0  0  0  0  0  0  0  0
   -0.9920   -1.6585    0.8073 H   0  0  0  0  0  0  0  0  0  0  0  0
   -1.2145   -0.9243    2.3855 H   0  0  0  0  0  0  0  0  0  0  0  0
   -0.6966   -2.6667    2.2123 H   0  0  0  0  0  0  0  0  0  0  0  0
  1  2  1  0  0  0  0
  1 13  1  0  0  0  0
  1 14  1  0  0  0  0
  1 15  1  0  0  0  0
  2  3  1  0  0  0  0
  2 16  1  0  0  0  0
  3  4  2  0  0  0  0
  3  8  1  0  0  0  0
  4  5  1  0  0  0  0
  4 17  1  0  0  0  0
  5  6  2  0  0  0  0
  5 18  1  0  0  0  0
  6  7  1  0  0  0  0
  6 19  1  0  0  0  0
  7  8  2  0  0  0  0
  7 20  1  0  0  0  0
  8  9  1  0  0  0  0
  9 10  2  0  0  0  0
  9 11  1  0  0  0  0
 11 12  1  0  0  0  0
 12 21  1  0  0  0  0
 12 22  1  0  0  0  0
 12 23  1  0  0  0  0
M  END
$$$$
