
 OpenBabel07222214433D

 14 14  0  0  0  0  0  0  0  0999 V2000
    0.8333    0.1086    0.0787 S   0  0  0  0  0  0  0  0  0  0  0  0
    2.6434    0.0747    0.0393 C   0  0  0  0  0  0  0  0  0  0  0  0
    3.2557    1.1185    0.9675 C   0  0  0  0  0  0  0  0  0  0  0  0
    4.6747    0.6627    1.2850 C   0  0  0  0  0  0  0  0  0  0  0  0
    4.6362   -0.8233    1.6007 C   0  0  0  0  0  0  0  0  0  0  0  0
    3.2767   -1.5160    0.6293 S   0  0  0  0  0  0  0  0  0  0  0  0
    0.6787    1.2733   -0.5644 H   0  0  0  0  0  0  0  0  0  0  0  0
    2.9837    0.2198   -0.9901 H   0  0  0  0  0  0  0  0  0  0  0  0
    2.6895    1.2293    1.8993 H   0  0  0  0  0  0  0  0  0  0  0  0
    3.2757    2.1038    0.4835 H   0  0  0  0  0  0  0  0  0  0  0  0
    5.0826    1.2234    2.1354 H   0  0  0  0  0  0  0  0  0  0  0  0
    5.3351    0.8524    0.4326 H   0  0  0  0  0  0  0  0  0  0  0  0
    4.4480   -1.0035    2.6620 H   0  0  0  0  0  0  0  0  0  0  0  0
    5.5784   -1.3096    1.3282 H   0  0  0  0  0  0  0  0  0  0  0  0
  1  2  1  0  0  0  0
  1  7  1  0  0  0  0
  2  3  1  0  0  0  0
  2  6  1  0  0  0  0
  2  8  1  0  0  0  0
  3  4  1  0  0  0  0
  3  9  1  0  0  0  0
  3 10  1  0  0  0  0
  4  5  1  0  0  0  0
  4 11  1  0  0  0  0
  4 12  1  0  0  0  0
  5  6  1  0  0  0  0
  5 13  1  0  0  0  0
  5 14  1  0  0  0  0
M  END
$$$$
