
 OpenBabel07202215583D

 17 18  0  0  0  0  0  0  0  0999 V2000
   -3.2217    0.5632    0.0974 O   0  0  0  0  0  0  0  0  0  0  0  0
   -2.0680    0.1668   -0.0077 C   0  0  0  0  0  0  0  0  0  0  0  0
   -0.9893    1.0350   -0.0833 O   0  0  0  0  0  0  0  0  0  0  0  0
    0.3307    0.5482   -0.0561 C   0  0  0  0  0  0  0  0  0  0  0  0
    1.3527    1.4930   -0.0633 C   0  0  0  0  0  0  0  0  0  0  0  0
    2.6742    1.0601    0.0087 C   0  0  0  0  0  0  0  0  0  0  0  0
    2.9584   -0.3058    0.0868 C   0  0  0  0  0  0  0  0  0  0  0  0
    1.9222   -1.2463    0.0743 C   0  0  0  0  0  0  0  0  0  0  0  0
    0.5952   -0.8194   -0.0026 C   0  0  0  0  0  0  0  0  0  0  0  0
   -0.5200   -1.7506   -0.0534 C   0  0  0  0  0  0  0  0  0  0  0  0
   -1.7692   -1.2755   -0.0743 C   0  0  0  0  0  0  0  0  0  0  0  0
    1.1188    2.5518   -0.1195 H   0  0  0  0  0  0  0  0  0  0  0  0
    3.4826    1.7869    0.0085 H   0  0  0  0  0  0  0  0  0  0  0  0
    3.9916   -0.6385    0.1535 H   0  0  0  0  0  0  0  0  0  0  0  0
    2.1657   -2.3047    0.1254 H   0  0  0  0  0  0  0  0  0  0  0  0
   -0.3218   -2.8160   -0.0896 H   0  0  0  0  0  0  0  0  0  0  0  0
   -2.6294   -1.9311   -0.1281 H   0  0  0  0  0  0  0  0  0  0  0  0
  1  2  2  0  0  0  0
  2  3  1  0  0  0  0
  2 11  1  0  0  0  0
  3  4  1  0  0  0  0
  4  5  1  0  0  0  0
  4  9  2  0  0  0  0
  5  6  2  0  0  0  0
  5 12  1  0  0  0  0
  6  7  1  0  0  0  0
  6 13  1  0  0  0  0
  7  8  2  0  0  0  0
  7 14  1  0  0  0  0
  8  9  1  0  0  0  0
  8 15  1  0  0  0  0
  9 10  1  0  0  0  0
 10 11  2  0  0  0  0
 10 16  1  0  0  0  0
 11 17  1  0  0  0  0
M  END
$$$$
