
 OpenBabel07202215583D

 23 23  0  0  0  0  0  0  0  0999 V2000
    0.8820   -0.0705   -0.0205 C   0  0  0  0  0  0  0  0  0  0  0  0
    2.4138   -0.1191   -0.0086 C   0  0  0  0  0  0  0  0  0  0  0  0
    2.9308   -1.4894    0.4584 C   0  0  0  0  0  0  0  0  0  0  0  0
    2.4969   -1.8556    1.8474 C   0  0  0  0  0  0  0  0  0  0  0  0
    2.7686   -2.9445    2.3551 O   0  0  0  0  0  0  0  0  0  0  0  0
    2.9439    0.2630   -1.3855 C   0  0  0  0  0  0  0  0  0  0  0  0
    3.5093   -0.6764   -2.2630 C   0  0  0  0  0  0  0  0  0  0  0  0
    4.0594   -0.2818   -3.4798 C   0  0  0  0  0  0  0  0  0  0  0  0
    3.9694    1.0450   -3.8827 C   0  0  0  0  0  0  0  0  0  0  0  0
    3.3717    1.9861   -3.0477 C   0  0  0  0  0  0  0  0  0  0  0  0
    2.8752    1.6019   -1.8012 C   0  0  0  0  0  0  0  0  0  0  0  0
    0.4624   -0.2885    0.9658 H   0  0  0  0  0  0  0  0  0  0  0  0
    0.4748   -0.7973   -0.7307 H   0  0  0  0  0  0  0  0  0  0  0  0
    0.5155    0.9215   -0.3061 H   0  0  0  0  0  0  0  0  0  0  0  0
    2.7796    0.6337    0.7055 H   0  0  0  0  0  0  0  0  0  0  0  0
    4.0286   -1.4948    0.4476 H   0  0  0  0  0  0  0  0  0  0  0  0
    2.5675   -2.2838   -0.2029 H   0  0  0  0  0  0  0  0  0  0  0  0
    1.9161   -1.1093    2.4083 H   0  0  0  0  0  0  0  0  0  0  0  0
    3.5438   -1.7354   -2.0232 H   0  0  0  0  0  0  0  0  0  0  0  0
    4.5592   -1.0163   -4.1056 H   0  0  0  0  0  0  0  0  0  0  0  0
    4.3618    1.3416   -4.8506 H   0  0  0  0  0  0  0  0  0  0  0  0
    3.3035    3.0239   -3.3617 H   0  0  0  0  0  0  0  0  0  0  0  0
    2.4277    2.3561   -1.1568 H   0  0  0  0  0  0  0  0  0  0  0  0
  1  2  1  0  0  0  0
  1 12  1  0  0  0  0
  1 13  1  0  0  0  0
  1 14  1  0  0  0  0
  2  3  1  0  0  0  0
  2  6  1  0  0  0  0
  2 15  1  0  0  0  0
  3  4  1  0  0  0  0
  3 16  1  0  0  0  0
  3 17  1  0  0  0  0
  4  5  2  0  0  0  0
  4 18  1  0  0  0  0
  6  7  1  0  0  0  0
  6 11  2  0  0  0  0
  7  8  2  0  0  0  0
  7 19  1  0  0  0  0
  8  9  1  0  0  0  0
  8 20  1  0  0  0  0
  9 10  2  0  0  0  0
  9 21  1  0  0  0  0
 10 11  1  0  0  0  0
 10 22  1  0  0  0  0
 11 23  1  0  0  0  0
M  END
$$$$
