
 OpenBabel07122215493D

 17 16  0  0  0  0  0  0  0  0999 V2000
    0.9909    0.0519   -0.0624 C   0  0  0  0  0  0  0  0  0  0  0  0
    2.5104    0.0520   -0.0736 C   0  0  0  0  0  0  0  0  0  0  0  0
    3.0151    0.0620   -1.5108 C   0  0  0  0  0  0  0  0  0  0  0  0
    4.5340    0.0625   -1.5907 C   0  0  0  0  0  0  0  0  0  0  0  0
    5.1098    0.0722   -2.9906 C   0  0  0  0  0  0  0  0  0  0  0  0
    4.2391    0.0793   -4.0184 O   0  0  0  0  0  0  0  0  0  0  0  0
    6.3191    0.0736   -3.1910 O   0  0  0  0  0  0  0  0  0  0  0  0
    0.6147    0.0449    0.9636 H   0  0  0  0  0  0  0  0  0  0  0  0
    0.6002   -0.8308   -0.5797 H   0  0  0  0  0  0  0  0  0  0  0  0
    0.6002    0.9417   -0.5674 H   0  0  0  0  0  0  0  0  0  0  0  0
    2.8822   -0.8355    0.4509 H   0  0  0  0  0  0  0  0  0  0  0  0
    2.8822    0.9323    0.4631 H   0  0  0  0  0  0  0  0  0  0  0  0
    2.6226    0.9502   -2.0212 H   0  0  0  0  0  0  0  0  0  0  0  0
    2.6226   -0.8191   -2.0335 H   0  0  0  0  0  0  0  0  0  0  0  0
    4.9225   -0.8288   -1.0832 H   0  0  0  0  0  0  0  0  0  0  0  0
    4.9225    0.9468   -1.0710 H   0  0  0  0  0  0  0  0  0  0  0  0
    3.2893    0.0778   -3.8072 H   0  0  0  0  0  0  0  0  0  0  0  0
  1  2  1  0  0  0  0
  1  8  1  0  0  0  0
  1  9  1  0  0  0  0
  1 10  1  0  0  0  0
  2  3  1  0  0  0  0
  2 11  1  0  0  0  0
  2 12  1  0  0  0  0
  3  4  1  0  0  0  0
  3 13  1  0  0  0  0
  3 14  1  0  0  0  0
  4  5  1  0  0  0  0
  4 15  1  0  0  0  0
  4 16  1  0  0  0  0
  5  6  1  0  0  0  0
  5  7  2  0  0  0  0
  6 17  1  0  0  0  0
M  END
$$$$
