
 OpenBabel07222214443D

 24 24  0  0  0  0  0  0  0  0999 V2000
    0.8975   -0.0110   -0.0367 C   0  0  0  0  0  0  0  0  0  0  0  0
    2.4155   -0.0118   -0.0467 C   0  0  0  0  0  0  0  0  0  0  0  0
    2.9688   -0.2607   -1.4504 C   0  0  0  0  0  0  0  0  0  0  0  0
    4.4866   -0.2711   -1.4459 C   0  0  0  0  0  0  0  0  0  0  0  0
    5.1573   -0.1388   -0.4233 O   0  0  0  0  0  0  0  0  0  0  0  0
    5.1931   -0.5022   -2.7305 C   0  0  0  0  0  0  0  0  0  0  0  0
    4.8029    0.1387   -3.9122 C   0  0  0  0  0  0  0  0  0  0  0  0
    5.5385   -0.0577   -5.0880 C   0  0  0  0  0  0  0  0  0  0  0  0
    6.6483   -0.8996   -5.0715 C   0  0  0  0  0  0  0  0  0  0  0  0
    7.0295   -1.5525   -3.9049 C   0  0  0  0  0  0  0  0  0  0  0  0
    6.3079   -1.3485   -2.7289 C   0  0  0  0  0  0  0  0  0  0  0  0
    7.4094   -1.1145   -6.1819 O   0  0  0  0  0  0  0  0  0  0  0  0
    0.5257    0.1756    0.9756 H   0  0  0  0  0  0  0  0  0  0  0  0
    0.5048   -0.9758   -0.3722 H   0  0  0  0  0  0  0  0  0  0  0  0
    0.5036    0.7703   -0.6941 H   0  0  0  0  0  0  0  0  0  0  0  0
    2.7815   -0.7812    0.6441 H   0  0  0  0  0  0  0  0  0  0  0  0
    2.7805    0.9514    0.3305 H   0  0  0  0  0  0  0  0  0  0  0  0
    2.6053    0.5222   -2.1227 H   0  0  0  0  0  0  0  0  0  0  0  0
    2.6197   -1.2337   -1.8159 H   0  0  0  0  0  0  0  0  0  0  0  0
    3.9566    0.8191   -3.9268 H   0  0  0  0  0  0  0  0  0  0  0  0
    5.2388    0.4596   -5.9946 H   0  0  0  0  0  0  0  0  0  0  0  0
    7.8948   -2.2094   -3.9088 H   0  0  0  0  0  0  0  0  0  0  0  0
    6.6187   -1.8466   -1.8130 H   0  0  0  0  0  0  0  0  0  0  0  0
    7.0740   -0.5744   -6.9154 H   0  0  0  0  0  0  0  0  0  0  0  0
  1  2  1  0  0  0  0
  1 13  1  0  0  0  0
  1 14  1  0  0  0  0
  1 15  1  0  0  0  0
  2  3  1  0  0  0  0
  2 16  1  0  0  0  0
  2 17  1  0  0  0  0
  3  4  1  0  0  0  0
  3 18  1  0  0  0  0
  3 19  1  0  0  0  0
  4  5  2  0  0  0  0
  4  6  1  0  0  0  0
  6  7  2  0  0  0  0
  6 11  1  0  0  0  0
  7  8  1  0  0  0  0
  7 20  1  0  0  0  0
  8  9  2  0  0  0  0
  8 21  1  0  0  0  0
  9 10  1  0  0  0  0
  9 12  1  0  0  0  0
 10 11  2  0  0  0  0
 10 22  1  0  0  0  0
 11 23  1  0  0  0  0
 12 24  1  0  0  0  0
M  END
$$$$
