
 OpenBabel07202215583D

 19 18  0  0  0  0  0  0  0  0999 V2000
    0.8984   -0.0620   -0.0449 C   0  0  0  0  0  0  0  0  0  0  0  0
    2.4144   -0.0581   -0.0389 C   0  0  0  0  0  0  0  0  0  0  0  0
    2.9763    0.7492    1.0961 C   0  0  0  0  0  0  0  0  0  0  0  0
    4.2969    0.8939    1.2973 C   0  0  0  0  0  0  0  0  0  0  0  0
    5.3245    0.2605    0.4044 C   0  0  0  0  0  0  0  0  0  0  0  0
    6.7521    0.5630    0.8367 C   0  0  0  0  0  0  0  0  0  0  0  0
    7.6722   -0.0633   -0.0498 O   0  0  0  0  0  0  0  0  0  0  0  0
    0.5314   -0.6604   -0.8842 H   0  0  0  0  0  0  0  0  0  0  0  0
    0.5055    0.9542   -0.1502 H   0  0  0  0  0  0  0  0  0  0  0  0
    0.5052   -0.4924    0.8814 H   0  0  0  0  0  0  0  0  0  0  0  0
    2.7691    0.3524   -0.9918 H   0  0  0  0  0  0  0  0  0  0  0  0
    2.7686   -1.0930    0.0371 H   0  0  0  0  0  0  0  0  0  0  0  0
    2.2839    1.2381    1.7781 H   0  0  0  0  0  0  0  0  0  0  0  0
    4.6373    1.4967    2.1364 H   0  0  0  0  0  0  0  0  0  0  0  0
    5.1873    0.6058   -0.6282 H   0  0  0  0  0  0  0  0  0  0  0  0
    5.1826   -0.8278    0.3911 H   0  0  0  0  0  0  0  0  0  0  0  0
    6.9429    0.1976    1.8508 H   0  0  0  0  0  0  0  0  0  0  0  0
    6.9406    1.6409    0.8165 H   0  0  0  0  0  0  0  0  0  0  0  0
    7.4965   -1.0197   -0.0237 H   0  0  0  0  0  0  0  0  0  0  0  0
  1  2  1  0  0  0  0
  1  8  1  0  0  0  0
  1  9  1  0  0  0  0
  1 10  1  0  0  0  0
  2  3  1  0  0  0  0
  2 11  1  0  0  0  0
  2 12  1  0  0  0  0
  3  4  2  0  0  0  0
  3 13  1  0  0  0  0
  4  5  1  0  0  0  0
  4 14  1  0  0  0  0
  5  6  1  0  0  0  0
  5 15  1  0  0  0  0
  5 16  1  0  0  0  0
  6  7  1  0  0  0  0
  6 17  1  0  0  0  0
  6 18  1  0  0  0  0
  7 19  1  0  0  0  0
M  END
$$$$
