
 OpenBabel07202215583D

 18 18  0  0  0  0  0  0  0  0999 V2000
    1.0880    0.0251   -0.0457 C   0  0  0  0  0  0  0  0  0  0  0  0
    2.5017   -0.1395    0.0253 O   0  0  0  0  0  0  0  0  0  0  0  0
    3.1003    0.1896    1.2138 C   0  0  0  0  0  0  0  0  0  0  0  0
    2.7617   -0.3448    2.4590 C   0  0  0  0  0  0  0  0  0  0  0  0
    3.5270   -0.0555    3.5925 C   0  0  0  0  0  0  0  0  0  0  0  0
    4.6432    0.7730    3.4966 C   0  0  0  0  0  0  0  0  0  0  0  0
    4.9791    1.3147    2.2640 C   0  0  0  0  0  0  0  0  0  0  0  0
    4.2269    1.0201    1.1229 C   0  0  0  0  0  0  0  0  0  0  0  0
    6.0570    2.1409    2.1285 O   0  0  0  0  0  0  0  0  0  0  0  0
    1.7277   -1.2104    2.6709 O   0  0  0  0  0  0  0  0  0  0  0  0
    0.7956   -0.1264   -1.0907 H   0  0  0  0  0  0  0  0  0  0  0  0
    0.7723    1.0263    0.2597 H   0  0  0  0  0  0  0  0  0  0  0  0
    0.5494   -0.7360    0.5203 H   0  0  0  0  0  0  0  0  0  0  0  0
    3.2627   -0.5070    4.5435 H   0  0  0  0  0  0  0  0  0  0  0  0
    5.2340    0.9689    4.3871 H   0  0  0  0  0  0  0  0  0  0  0  0
    4.5292    1.4373    0.1673 H   0  0  0  0  0  0  0  0  0  0  0  0
    6.4649    2.2688    3.0023 H   0  0  0  0  0  0  0  0  0  0  0  0
    1.5313   -1.6415    1.8251 H   0  0  0  0  0  0  0  0  0  0  0  0
  1  2  1  0  0  0  0
  1 11  1  0  0  0  0
  1 12  1  0  0  0  0
  1 13  1  0  0  0  0
  2  3  1  0  0  0  0
  3  4  2  0  0  0  0
  3  8  1  0  0  0  0
  4  5  1  0  0  0  0
  4 10  1  0  0  0  0
  5  6  2  0  0  0  0
  5 14  1  0  0  0  0
  6  7  1  0  0  0  0
  6 15  1  0  0  0  0
  7  8  2  0  0  0  0
  7  9  1  0  0  0  0
  8 16  1  0  0  0  0
  9 17  1  0  0  0  0
 10 18  1  0  0  0  0
M  END
$$$$
