
 OpenBabel07202215583D

 10  9  0  0  0  0  0  0  0  0999 V2000
    0.8779   -0.0062   -0.0616 S   0  0  0  0  0  0  0  0  0  0  0  0
    2.6922   -0.0519   -0.0371 C   0  0  0  0  0  0  0  0  0  0  0  0
    3.2489    1.1736   -0.6947 C   0  0  0  0  0  0  0  0  0  0  0  0
    4.5634    1.4081   -0.8206 C   0  0  0  0  0  0  0  0  0  0  0  0
    0.6767   -1.1740    0.5650 H   0  0  0  0  0  0  0  0  0  0  0  0
    3.0237   -0.9521   -0.5645 H   0  0  0  0  0  0  0  0  0  0  0  0
    3.0237   -0.1102    1.0046 H   0  0  0  0  0  0  0  0  0  0  0  0
    2.5576    1.9144   -1.0922 H   0  0  0  0  0  0  0  0  0  0  0  0
    5.3069    0.7117   -0.4469 H   0  0  0  0  0  0  0  0  0  0  0  0
    4.9199    2.3120   -1.3056 H   0  0  0  0  0  0  0  0  0  0  0  0
  1  2  1  0  0  0  0
  1  5  1  0  0  0  0
  2  3  1  0  0  0  0
  2  6  1  0  0  0  0
  2  7  1  0  0  0  0
  3  4  2  0  0  0  0
  3  8  1  0  0  0  0
  4  9  1  0  0  0  0
  4 10  1  0  0  0  0
M  END
$$$$
