
 OpenBabel07202215583D

 29 28  0  0  0  0  0  0  0  0999 V2000
    1.0526    0.0334    0.0804 C   0  0  0  0  0  0  0  0  0  0  0  0
    2.5699    0.0311    0.0710 C   0  0  0  0  0  0  0  0  0  0  0  0
    3.0945   -0.3115   -1.3185 C   0  0  0  0  0  0  0  0  0  0  0  0
    4.6172   -0.3164   -1.3383 C   0  0  0  0  0  0  0  0  0  0  0  0
    5.1355   -0.6604   -2.7332 C   0  0  0  0  0  0  0  0  0  0  0  0
    6.6584   -0.6633   -2.7448 C   0  0  0  0  0  0  0  0  0  0  0  0
    7.2330   -1.0025   -4.1205 C   0  0  0  0  0  0  0  0  0  0  0  0
    8.7462   -0.9884   -4.0633 C   0  0  0  0  0  0  0  0  0  0  0  0
    9.4027   -0.7406   -3.0584 O   0  0  0  0  0  0  0  0  0  0  0  0
    9.2856   -1.2879   -5.2780 O   0  0  0  0  0  0  0  0  0  0  0  0
   10.7183   -1.2878   -5.2778 C   0  0  0  0  0  0  0  0  0  0  0  0
    0.6788    0.2794    1.0779 H   0  0  0  0  0  0  0  0  0  0  0  0
    0.6623   -0.9498   -0.2015 H   0  0  0  0  0  0  0  0  0  0  0  0
    0.6623    0.7728   -0.6263 H   0  0  0  0  0  0  0  0  0  0  0  0
    2.9398   -0.6983    0.8012 H   0  0  0  0  0  0  0  0  0  0  0  0
    2.9398    1.0163    0.3784 H   0  0  0  0  0  0  0  0  0  0  0  0
    2.7190    0.4181   -2.0464 H   0  0  0  0  0  0  0  0  0  0  0  0
    2.7190   -1.2960   -1.6237 H   0  0  0  0  0  0  0  0  0  0  0  0
    4.9939   -1.0458   -0.6104 H   0  0  0  0  0  0  0  0  0  0  0  0
    4.9939    0.6678   -1.0329 H   0  0  0  0  0  0  0  0  0  0  0  0
    4.7576    0.0712   -3.4572 H   0  0  0  0  0  0  0  0  0  0  0  0
    4.7576   -1.6447   -3.0341 H   0  0  0  0  0  0  0  0  0  0  0  0
    7.0250   -1.3877   -2.0062 H   0  0  0  0  0  0  0  0  0  0  0  0
    7.0250    0.3215   -2.4277 H   0  0  0  0  0  0  0  0  0  0  0  0
    6.8930   -0.2648   -4.8559 H   0  0  0  0  0  0  0  0  0  0  0  0
    6.8930   -1.9975   -4.4287 H   0  0  0  0  0  0  0  0  0  0  0  0
   11.0667   -1.5360   -6.2842 H   0  0  0  0  0  0  0  0  0  0  0  0
   11.1044   -2.0436   -4.5851 H   0  0  0  0  0  0  0  0  0  0  0  0
   11.1044   -0.2967   -5.0159 H   0  0  0  0  0  0  0  0  0  0  0  0
  1  2  1  0  0  0  0
  1 12  1  0  0  0  0
  1 13  1  0  0  0  0
  1 14  1  0  0  0  0
  2  3  1  0  0  0  0
  2 15  1  0  0  0  0
  2 16  1  0  0  0  0
  3  4  1  0  0  0  0
  3 17  1  0  0  0  0
  3 18  1  0  0  0  0
  4  5  1  0  0  0  0
  4 19  1  0  0  0  0
  4 20  1  0  0  0  0
  5  6  1  0  0  0  0
  5 21  1  0  0  0  0
  5 22  1  0  0  0  0
  6  7  1  0  0  0  0
  6 23  1  0  0  0  0
  6 24  1  0  0  0  0
  7  8  1  0  0  0  0
  7 25  1  0  0  0  0
  7 26  1  0  0  0  0
  8  9  2  0  0  0  0
  8 10  1  0  0  0  0
 10 11  1  0  0  0  0
 11 27  1  0  0  0  0
 11 28  1  0  0  0  0
 11 29  1  0  0  0  0
M  END
$$$$
