
 OpenBabel07222214433D

 19 19  0  0  0  0  0  0  0  0999 V2000
    0.9649    0.0155   -0.0957 C   0  0  0  0  0  0  0  0  0  0  0  0
    2.4880    0.0238   -0.1025 C   0  0  0  0  0  0  0  0  0  0  0  0
    3.0358   -1.6125    0.4214 S   0  0  0  0  0  0  0  0  0  0  0  0
    3.3281   -0.9945    2.0922 C   0  0  0  0  0  0  0  0  0  0  0  0
    4.5792   -1.6475    2.6327 C   0  0  0  0  0  0  0  0  0  0  0  0
    3.4290    0.5157    1.8998 C   0  0  0  0  0  0  0  0  0  0  0  0
    2.9783    1.0728    0.8164 N   0  0  0  0  0  0  0  0  0  0  0  0
    3.9955    1.3763    3.0022 C   0  0  0  0  0  0  0  0  0  0  0  0
    0.5700   -0.7708   -0.7500 H   0  0  0  0  0  0  0  0  0  0  0  0
    0.5702    0.9728   -0.4479 H   0  0  0  0  0  0  0  0  0  0  0  0
    0.5654   -0.1488    0.9129 H   0  0  0  0  0  0  0  0  0  0  0  0
    2.8625    0.2195   -1.1124 H   0  0  0  0  0  0  0  0  0  0  0  0
    2.4570   -1.2030    2.7221 H   0  0  0  0  0  0  0  0  0  0  0  0
    5.4622   -1.3737    2.0449 H   0  0  0  0  0  0  0  0  0  0  0  0
    4.4803   -2.7384    2.6359 H   0  0  0  0  0  0  0  0  0  0  0  0
    4.7663   -1.3400    3.6653 H   0  0  0  0  0  0  0  0  0  0  0  0
    4.2610    0.7820    3.8780 H   0  0  0  0  0  0  0  0  0  0  0  0
    3.2589    2.1239    3.3081 H   0  0  0  0  0  0  0  0  0  0  0  0
    4.8934    1.8860    2.6402 H   0  0  0  0  0  0  0  0  0  0  0  0
  1  2  1  0  0  0  0
  1  9  1  0  0  0  0
  1 10  1  0  0  0  0
  1 11  1  0  0  0  0
  2  3  1  0  0  0  0
  2  7  1  0  0  0  0
  2 12  1  0  0  0  0
  3  4  1  0  0  0  0
  4  5  1  0  0  0  0
  4  6  1  0  0  0  0
  4 13  1  0  0  0  0
  5 14  1  0  0  0  0
  5 15  1  0  0  0  0
  5 16  1  0  0  0  0
  6  7  2  0  0  0  0
  6  8  1  0  0  0  0
  8 17  1  0  0  0  0
  8 18  1  0  0  0  0
  8 19  1  0  0  0  0
M  END
$$$$
