
 OpenBabel07122215493D

 18 18  0  0  0  0  0  0  0  0999 V2000
    1.1653    0.0582   -0.0822 C   0  0  0  0  0  0  0  0  0  0  0  0
    2.6006    0.0404   -0.0831 O   0  0  0  0  0  0  0  0  0  0  0  0
    3.1585    0.9044   -0.9675 C   0  0  0  0  0  0  0  0  0  0  0  0
    2.5476    1.6585   -1.7159 O   0  0  0  0  0  0  0  0  0  0  0  0
    4.6418    0.8506   -0.9321 C   0  0  0  0  0  0  0  0  0  0  0  0
    5.3656    2.0397   -1.1045 C   0  0  0  0  0  0  0  0  0  0  0  0
    6.7531    2.0025   -1.2748 C   0  0  0  0  0  0  0  0  0  0  0  0
    7.4310    0.7863   -1.2101 C   0  0  0  0  0  0  0  0  0  0  0  0
    6.7186   -0.3974   -1.0113 C   0  0  0  0  0  0  0  0  0  0  0  0
    5.3250   -0.3698   -0.8776 C   0  0  0  0  0  0  0  0  0  0  0  0
    0.8091   -0.6280    0.6925 H   0  0  0  0  0  0  0  0  0  0  0  0
    0.7765   -0.2854   -1.0468 H   0  0  0  0  0  0  0  0  0  0  0  0
    0.7819    1.0585    0.1488 H   0  0  0  0  0  0  0  0  0  0  0  0
    4.8498    2.9974   -1.1262 H   0  0  0  0  0  0  0  0  0  0  0  0
    7.3031    2.9178   -1.4827 H   0  0  0  0  0  0  0  0  0  0  0  0
    8.5132    0.7609   -1.3230 H   0  0  0  0  0  0  0  0  0  0  0  0
    7.2497   -1.3463   -0.9924 H   0  0  0  0  0  0  0  0  0  0  0  0
    4.7797   -1.3032   -0.7696 H   0  0  0  0  0  0  0  0  0  0  0  0
  1  2  1  0  0  0  0
  1 11  1  0  0  0  0
  1 12  1  0  0  0  0
  1 13  1  0  0  0  0
  2  3  1  0  0  0  0
  3  4  2  0  0  0  0
  3  5  1  0  0  0  0
  5  6  2  0  0  0  0
  5 10  1  0  0  0  0
  6  7  1  0  0  0  0
  6 14  1  0  0  0  0
  7  8  2  0  0  0  0
  7 15  1  0  0  0  0
  8  9  1  0  0  0  0
  8 16  1  0  0  0  0
  9 10  2  0  0  0  0
  9 17  1  0  0  0  0
 10 18  1  0  0  0  0
M  END
$$$$
