
 OpenBabel07202215583D

 30 30  0  0  0  0  0  0  0  0999 V2000
    1.0992    0.0108   -0.0496 C   0  0  0  0  0  0  0  0  0  0  0  0
    2.6170    0.0100   -0.0248 C   0  0  0  0  0  0  0  0  0  0  0  0
    3.0412   -1.1885   -0.6718 O   0  0  0  0  0  0  0  0  0  0  0  0
    4.3926   -1.3457   -0.8117 C   0  0  0  0  0  0  0  0  0  0  0  0
    4.9238   -1.8273   -2.0184 C   0  0  0  0  0  0  0  0  0  0  0  0
    6.2831   -2.2060   -2.0697 C   0  0  0  0  0  0  0  0  0  0  0  0
    7.1395   -2.0147   -0.9696 C   0  0  0  0  0  0  0  0  0  0  0  0
    6.5801   -1.5110    0.2081 C   0  0  0  0  0  0  0  0  0  0  0  0
    5.2284   -1.1894    0.2911 C   0  0  0  0  0  0  0  0  0  0  0  0
    8.5873   -2.2912   -1.0809 C   0  0  0  0  0  0  0  0  0  0  0  0
    9.4915   -2.0421   -0.1097 C   0  0  0  0  0  0  0  0  0  0  0  0
   10.9624   -2.2530   -0.2311 C   0  0  0  0  0  0  0  0  0  0  0  0
    4.2552   -1.9583   -3.2146 O   0  0  0  0  0  0  0  0  0  0  0  0
    2.9593   -1.3678   -3.3019 C   0  0  0  0  0  0  0  0  0  0  0  0
    0.7015    0.8987    0.4477 H   0  0  0  0  0  0  0  0  0  0  0  0
    0.7103   -0.8818    0.4534 H   0  0  0  0  0  0  0  0  0  0  0  0
    0.7267   -0.0198   -1.0790 H   0  0  0  0  0  0  0  0  0  0  0  0
    2.9447    0.0392    1.0179 H   0  0  0  0  0  0  0  0  0  0  0  0
    3.0007    0.8855   -0.5616 H   0  0  0  0  0  0  0  0  0  0  0  0
    6.6659   -2.6473   -2.9888 H   0  0  0  0  0  0  0  0  0  0  0  0
    7.1735   -1.3722    1.1051 H   0  0  0  0  0  0  0  0  0  0  0  0
    4.8485   -0.8463    1.2459 H   0  0  0  0  0  0  0  0  0  0  0  0
    8.9323   -2.6786   -2.0359 H   0  0  0  0  0  0  0  0  0  0  0  0
    9.1928   -1.6391    0.8507 H   0  0  0  0  0  0  0  0  0  0  0  0
   11.2508   -2.6301   -1.2149 H   0  0  0  0  0  0  0  0  0  0  0  0
   11.2952   -2.9653    0.5303 H   0  0  0  0  0  0  0  0  0  0  0  0
   11.4828   -1.3046   -0.0575 H   0  0  0  0  0  0  0  0  0  0  0  0
    2.6277   -1.3948   -4.3439 H   0  0  0  0  0  0  0  0  0  0  0  0
    2.9645   -0.3131   -2.9990 H   0  0  0  0  0  0  0  0  0  0  0  0
    2.2357   -1.9538   -2.7267 H   0  0  0  0  0  0  0  0  0  0  0  0
  1  2  1  0  0  0  0
  1 15  1  0  0  0  0
  1 16  1  0  0  0  0
  1 17  1  0  0  0  0
  2  3  1  0  0  0  0
  2 18  1  0  0  0  0
  2 19  1  0  0  0  0
  3  4  1  0  0  0  0
  4  5  2  0  0  0  0
  4  9  1  0  0  0  0
  5  6  1  0  0  0  0
  5 13  1  0  0  0  0
  6  7  2  0  0  0  0
  6 20  1  0  0  0  0
  7  8  1  0  0  0  0
  7 10  1  0  0  0  0
  8  9  2  0  0  0  0
  8 21  1  0  0  0  0
  9 22  1  0  0  0  0
 10 11  2  0  0  0  0
 10 23  1  0  0  0  0
 11 12  1  0  0  0  0
 11 24  1  0  0  0  0
 12 25  1  0  0  0  0
 12 26  1  0  0  0  0
 12 27  1  0  0  0  0
 13 14  1  0  0  0  0
 14 28  1  0  0  0  0
 14 29  1  0  0  0  0
 14 30  1  0  0  0  0
M  END
$$$$
