
 OpenBabel07222214433D

 14 14  0  0  0  0  0  0  0  0999 V2000
    1.0987    0.0639   -0.0063 O   0  0  0  0  0  0  0  0  0  0  0  0
    2.3213    0.0061   -0.1112 C   0  0  0  0  0  0  0  0  0  0  0  0
    3.0338    0.7533   -1.1584 C   0  0  0  0  0  0  0  0  0  0  0  0
    4.1411    0.1966   -1.8043 C   0  0  0  0  0  0  0  0  0  0  0  0
    4.8311    0.9569   -2.7523 C   0  0  0  0  0  0  0  0  0  0  0  0
    4.3869    2.2405   -3.0795 C   0  0  0  0  0  0  0  0  0  0  0  0
    3.2791    2.7871   -2.4311 C   0  0  0  0  0  0  0  0  0  0  0  0
    2.6026    2.0448   -1.4661 C   0  0  0  0  0  0  0  0  0  0  0  0
    2.9368   -0.5857    0.5838 H   0  0  0  0  0  0  0  0  0  0  0  0
    4.4562   -0.8241   -1.6036 H   0  0  0  0  0  0  0  0  0  0  0  0
    5.7149    0.5536   -3.2418 H   0  0  0  0  0  0  0  0  0  0  0  0
    4.9011    2.8155   -3.8465 H   0  0  0  0  0  0  0  0  0  0  0  0
    2.9442    3.7927   -2.6716 H   0  0  0  0  0  0  0  0  0  0  0  0
    1.7484    2.4717   -0.9457 H   0  0  0  0  0  0  0  0  0  0  0  0
  1  2  2  0  0  0  0
  2  3  1  0  0  0  0
  2  9  1  0  0  0  0
  3  4  1  0  0  0  0
  3  8  2  0  0  0  0
  4  5  2  0  0  0  0
  4 10  1  0  0  0  0
  5  6  1  0  0  0  0
  5 11  1  0  0  0  0
  6  7  2  0  0  0  0
  6 12  1  0  0  0  0
  7  8  1  0  0  0  0
  7 13  1  0  0  0  0
  8 14  1  0  0  0  0
M  END
$$$$
