
 OpenBabel07222214433D

 34 34  0  0  0  0  0  0  0  0999 V2000
    1.0067    0.0606   -0.0750 C   0  0  0  0  0  0  0  0  0  0  0  0
    2.5070    0.0102   -0.1155 C   0  0  0  0  0  0  0  0  0  0  0  0
    3.1200   -0.5807   -1.0042 O   0  0  0  0  0  0  0  0  0  0  0  0
    3.2132    0.7259    0.9726 C   0  0  0  0  0  0  0  0  0  0  0  0
    4.5534    0.7213    1.0476 C   0  0  0  0  0  0  0  0  0  0  0  0
    5.3806    1.5039    2.0533 C   0  0  0  0  0  0  0  0  0  0  0  0
    4.6224    1.6362    3.3673 C   0  0  0  0  0  0  0  0  0  0  0  0
    4.1013    2.8055    3.7863 C   0  0  0  0  0  0  0  0  0  0  0  0
    4.2166    4.0902    3.0109 C   0  0  0  0  0  0  0  0  0  0  0  0
    4.6842    3.8915    1.5629 C   0  0  0  0  0  0  0  0  0  0  0  0
    5.8447    2.8754    1.4542 C   0  0  0  0  0  0  0  0  0  0  0  0
    7.0785    3.4057    2.2200 C   0  0  0  0  0  0  0  0  0  0  0  0
    6.2610    2.7141   -0.0254 C   0  0  0  0  0  0  0  0  0  0  0  0
    4.4204    0.3453    4.1163 C   0  0  0  0  0  0  0  0  0  0  0  0
    0.6060   -0.5185   -0.9107 H   0  0  0  0  0  0  0  0  0  0  0  0
    0.6622    1.0947   -0.1659 H   0  0  0  0  0  0  0  0  0  0  0  0
    0.6466   -0.3772    0.8600 H   0  0  0  0  0  0  0  0  0  0  0  0
    2.6005    1.2827    1.6721 H   0  0  0  0  0  0  0  0  0  0  0  0
    5.1281    0.1772    0.2980 H   0  0  0  0  0  0  0  0  0  0  0  0
    6.2844    0.9149    2.2675 H   0  0  0  0  0  0  0  0  0  0  0  0
    3.5454    2.8509    4.7208 H   0  0  0  0  0  0  0  0  0  0  0  0
    4.9119    4.7533    3.5391 H   0  0  0  0  0  0  0  0  0  0  0  0
    3.2468    4.6006    3.0011 H   0  0  0  0  0  0  0  0  0  0  0  0
    4.9735    4.8587    1.1347 H   0  0  0  0  0  0  0  0  0  0  0  0
    3.8314    3.5439    0.9646 H   0  0  0  0  0  0  0  0  0  0  0  0
    6.8799    3.5687    3.2834 H   0  0  0  0  0  0  0  0  0  0  0  0
    7.4159    4.3596    1.7980 H   0  0  0  0  0  0  0  0  0  0  0  0
    7.9130    2.6992    2.1541 H   0  0  0  0  0  0  0  0  0  0  0  0
    5.4240    2.3886   -0.6535 H   0  0  0  0  0  0  0  0  0  0  0  0
    7.0593    1.9682   -0.1204 H   0  0  0  0  0  0  0  0  0  0  0  0
    6.6191    3.6557   -0.4506 H   0  0  0  0  0  0  0  0  0  0  0  0
    4.9131   -0.4865    3.5978 H   0  0  0  0  0  0  0  0  0  0  0  0
    3.3555    0.0953    4.1708 H   0  0  0  0  0  0  0  0  0  0  0  0
    4.8439    0.3965    5.1214 H   0  0  0  0  0  0  0  0  0  0  0  0
  1  2  1  0  0  0  0
  1 15  1  0  0  0  0
  1 16  1  0  0  0  0
  1 17  1  0  0  0  0
  2  3  2  0  0  0  0
  2  4  1  0  0  0  0
  4  5  2  0  0  0  0
  4 18  1  0  0  0  0
  5  6  1  0  0  0  0
  5 19  1  0  0  0  0
  6  7  1  0  0  0  0
  6 11  1  0  0  0  0
  6 20  1  0  0  0  0
  7  8  2  0  0  0  0
  7 14  1  0  0  0  0
  8  9  1  0  0  0  0
  8 21  1  0  0  0  0
  9 10  1  0  0  0  0
  9 22  1  0  0  0  0
  9 23  1  0  0  0  0
 10 11  1  0  0  0  0
 10 24  1  0  0  0  0
 10 25  1  0  0  0  0
 11 12  1  0  0  0  0
 11 13  1  0  0  0  0
 12 26  1  0  0  0  0
 12 27  1  0  0  0  0
 12 28  1  0  0  0  0
 13 29  1  0  0  0  0
 13 30  1  0  0  0  0
 13 31  1  0  0  0  0
 14 32  1  0  0  0  0
 14 33  1  0  0  0  0
 14 34  1  0  0  0  0
M  END
$$$$
