
 OpenBabel07202215583D

 17 16  0  0  0  0  0  0  0  0999 V2000
    0.9233   -0.0258   -0.0357 C   0  0  0  0  0  0  0  0  0  0  0  0
    2.4446   -0.0208   -0.0354 C   0  0  0  0  0  0  0  0  0  0  0  0
    3.0216    1.3943    0.0497 C   0  0  0  0  0  0  0  0  0  0  0  0
    4.5451    1.3855    0.0492 C   0  0  0  0  0  0  0  0  0  0  0  0
    5.2308    0.3710   -0.0118 O   0  0  0  0  0  0  0  0  0  0  0  0
    5.2734    2.9920    0.1458 S   0  0  0  0  0  0  0  0  0  0  0  0
    7.0395    2.5855    0.1213 C   0  0  0  0  0  0  0  0  0  0  0  0
    0.5486   -1.0532   -0.0975 H   0  0  0  0  0  0  0  0  0  0  0  0
    0.5272    0.5295   -0.8918 H   0  0  0  0  0  0  0  0  0  0  0  0
    0.5272    0.4229    0.8808 H   0  0  0  0  0  0  0  0  0  0  0  0
    2.8031   -0.5133   -0.9470 H   0  0  0  0  0  0  0  0  0  0  0  0
    2.8031   -0.6190    0.8107 H   0  0  0  0  0  0  0  0  0  0  0  0
    2.6676    1.8758    0.9694 H   0  0  0  0  0  0  0  0  0  0  0  0
    2.6676    1.9825   -0.8057 H   0  0  0  0  0  0  0  0  0  0  0  0
    7.6126    3.5173    0.1774 H   0  0  0  0  0  0  0  0  0  0  0  0
    7.3229    2.0760   -0.8043 H   0  0  0  0  0  0  0  0  0  0  0  0
    7.3229    1.9687    0.9792 H   0  0  0  0  0  0  0  0  0  0  0  0
  1  2  1  0  0  0  0
  1  8  1  0  0  0  0
  1  9  1  0  0  0  0
  1 10  1  0  0  0  0
  2  3  1  0  0  0  0
  2 11  1  0  0  0  0
  2 12  1  0  0  0  0
  3  4  1  0  0  0  0
  3 13  1  0  0  0  0
  3 14  1  0  0  0  0
  4  5  2  0  0  0  0
  4  6  1  0  0  0  0
  6  7  1  0  0  0  0
  7 15  1  0  0  0  0
  7 16  1  0  0  0  0
  7 17  1  0  0  0  0
M  END
$$$$
