
 OpenBabel07222214433D

 34 34  0  0  0  0  0  0  0  0999 V2000
    0.8636    0.0499    0.0707 C   0  0  0  0  0  0  0  0  0  0  0  0
    2.3438   -0.0828    0.0298 C   0  0  0  0  0  0  0  0  0  0  0  0
    2.9577   -1.2576   -0.2115 C   0  0  0  0  0  0  0  0  0  0  0  0
    4.3468   -1.1844   -0.7045 C   0  0  0  0  0  0  0  0  0  0  0  0
    4.6752   -0.1672   -1.3464 O   0  0  0  0  0  0  0  0  0  0  0  0
    5.4262   -2.2356   -0.3764 C   0  0  0  0  0  0  0  0  0  0  0  0
    5.1548   -3.7454   -0.2512 C   0  0  0  0  0  0  0  0  0  0  0  0
    5.5843   -4.4712    0.8059 C   0  0  0  0  0  0  0  0  0  0  0  0
    6.2041   -3.8845    2.0386 C   0  0  0  0  0  0  0  0  0  0  0  0
    5.9840   -2.3806    2.1007 C   0  0  0  0  0  0  0  0  0  0  0  0
    6.3410   -1.6705    0.7777 C   0  0  0  0  0  0  0  0  0  0  0  0
    7.8163   -1.8830    0.3803 C   0  0  0  0  0  0  0  0  0  0  0  0
    6.1870   -0.1521    1.0341 C   0  0  0  0  0  0  0  0  0  0  0  0
    4.6489   -4.4753   -1.4705 C   0  0  0  0  0  0  0  0  0  0  0  0
    0.5739    1.0974    0.2077 H   0  0  0  0  0  0  0  0  0  0  0  0
    0.4337   -0.5471    0.8755 H   0  0  0  0  0  0  0  0  0  0  0  0
    0.4565   -0.2728   -0.8941 H   0  0  0  0  0  0  0  0  0  0  0  0
    2.9075    0.8536    0.0457 H   0  0  0  0  0  0  0  0  0  0  0  0
    2.4393   -2.2028   -0.2568 H   0  0  0  0  0  0  0  0  0  0  0  0
    6.0084   -2.2037   -1.3125 H   0  0  0  0  0  0  0  0  0  0  0  0
    5.5442   -5.5612    0.7844 H   0  0  0  0  0  0  0  0  0  0  0  0
    7.2763   -4.1150    2.0664 H   0  0  0  0  0  0  0  0  0  0  0  0
    5.7642   -4.3502    2.9276 H   0  0  0  0  0  0  0  0  0  0  0  0
    6.5572   -1.9596    2.9340 H   0  0  0  0  0  0  0  0  0  0  0  0
    4.9235   -2.1973    2.3292 H   0  0  0  0  0  0  0  0  0  0  0  0
    8.0863   -2.9373    0.2772 H   0  0  0  0  0  0  0  0  0  0  0  0
    8.4829   -1.4305    1.1202 H   0  0  0  0  0  0  0  0  0  0  0  0
    8.0210   -1.4031   -0.5853 H   0  0  0  0  0  0  0  0  0  0  0  0
    5.1651    0.1033    1.3343 H   0  0  0  0  0  0  0  0  0  0  0  0
    6.4588    0.4267    0.1455 H   0  0  0  0  0  0  0  0  0  0  0  0
    6.8391    0.1916    1.8433 H   0  0  0  0  0  0  0  0  0  0  0  0
    4.4019   -3.7796   -2.2762 H   0  0  0  0  0  0  0  0  0  0  0  0
    3.7505   -5.0581   -1.2399 H   0  0  0  0  0  0  0  0  0  0  0  0
    5.4134   -5.1621   -1.8576 H   0  0  0  0  0  0  0  0  0  0  0  0
  1  2  1  0  0  0  0
  1 15  1  0  0  0  0
  1 16  1  0  0  0  0
  1 17  1  0  0  0  0
  2  3  2  0  0  0  0
  2 18  1  0  0  0  0
  3  4  1  0  0  0  0
  3 19  1  0  0  0  0
  4  5  2  0  0  0  0
  4  6  1  0  0  0  0
  6  7  1  0  0  0  0
  6 11  1  0  0  0  0
  6 20  1  0  0  0  0
  7  8  2  0  0  0  0
  7 14  1  0  0  0  0
  8  9  1  0  0  0  0
  8 21  1  0  0  0  0
  9 10  1  0  0  0  0
  9 22  1  0  0  0  0
  9 23  1  0  0  0  0
 10 11  1  0  0  0  0
 10 24  1  0  0  0  0
 10 25  1  0  0  0  0
 11 12  1  0  0  0  0
 11 13  1  0  0  0  0
 12 26  1  0  0  0  0
 12 27  1  0  0  0  0
 12 28  1  0  0  0  0
 13 29  1  0  0  0  0
 13 30  1  0  0  0  0
 13 31  1  0  0  0  0
 14 32  1  0  0  0  0
 14 33  1  0  0  0  0
 14 34  1  0  0  0  0
M  END
$$$$
