
 OpenBabel07222214433D

 23 23  0  0  0  0  0  0  0  0999 V2000
    1.0517    0.0202    0.0842 O   0  0  0  0  0  0  0  0  0  0  0  0
    2.2821   -0.0085    0.0582 C   0  0  0  0  0  0  0  0  0  0  0  0
    3.0503   -0.8175   -0.9512 C   0  0  0  0  0  0  0  0  0  0  0  0
    4.5459   -0.6518   -0.7469 C   0  0  0  0  0  0  0  0  0  0  0  0
    5.3451   -1.4472   -1.7869 C   0  0  0  0  0  0  0  0  0  0  0  0
    6.8264   -1.2753   -1.5643 C   0  0  0  0  0  0  0  0  0  0  0  0
    7.6575   -2.3871   -1.3863 C   0  0  0  0  0  0  0  0  0  0  0  0
    8.9921   -2.2099   -1.0190 C   0  0  0  0  0  0  0  0  0  0  0  0
    9.5242   -0.9258   -0.9054 C   0  0  0  0  0  0  0  0  0  0  0  0
    8.7199    0.1848   -1.1399 C   0  0  0  0  0  0  0  0  0  0  0  0
    7.3812    0.0099   -1.4757 C   0  0  0  0  0  0  0  0  0  0  0  0
    2.8707    0.5741    0.7863 H   0  0  0  0  0  0  0  0  0  0  0  0
    2.7720   -0.4673   -1.9504 H   0  0  0  0  0  0  0  0  0  0  0  0
    2.7686   -1.8685   -0.8405 H   0  0  0  0  0  0  0  0  0  0  0  0
    4.8282   -0.9705    0.2660 H   0  0  0  0  0  0  0  0  0  0  0  0
    4.7872    0.4169   -0.8033 H   0  0  0  0  0  0  0  0  0  0  0  0
    5.0918   -1.1249   -2.8037 H   0  0  0  0  0  0  0  0  0  0  0  0
    5.0731   -2.5079   -1.7091 H   0  0  0  0  0  0  0  0  0  0  0  0
    7.2698   -3.3963   -1.5077 H   0  0  0  0  0  0  0  0  0  0  0  0
    9.6141   -3.0742   -0.8023 H   0  0  0  0  0  0  0  0  0  0  0  0
   10.5678   -0.7901   -0.6377 H   0  0  0  0  0  0  0  0  0  0  0  0
    9.1232    1.1885   -1.0412 H   0  0  0  0  0  0  0  0  0  0  0  0
    6.7651    0.8901   -1.6416 H   0  0  0  0  0  0  0  0  0  0  0  0
  1  2  2  0  0  0  0
  2  3  1  0  0  0  0
  2 12  1  0  0  0  0
  3  4  1  0  0  0  0
  3 13  1  0  0  0  0
  3 14  1  0  0  0  0
  4  5  1  0  0  0  0
  4 15  1  0  0  0  0
  4 16  1  0  0  0  0
  5  6  1  0  0  0  0
  5 17  1  0  0  0  0
  5 18  1  0  0  0  0
  6  7  1  0  0  0  0
  6 11  2  0  0  0  0
  7  8  2  0  0  0  0
  7 19  1  0  0  0  0
  8  9  1  0  0  0  0
  8 20  1  0  0  0  0
  9 10  2  0  0  0  0
  9 21  1  0  0  0  0
 10 11  1  0  0  0  0
 10 22  1  0  0  0  0
 11 23  1  0  0  0  0
M  END
$$$$
