
 OpenBabel07202215583D

 19 19  0  0  0  0  0  0  0  0999 V2000
    1.0139   -0.1390    0.0704 C   0  0  0  0  0  0  0  0  0  0  0  0
    2.4377   -0.1227    0.0841 O   0  0  0  0  0  0  0  0  0  0  0  0
    3.0464    1.1074    0.0808 C   0  0  0  0  0  0  0  0  0  0  0  0
    4.4503    1.0419    0.0646 C   0  0  0  0  0  0  0  0  0  0  0  0
    5.2100    2.2158    0.0430 C   0  0  0  0  0  0  0  0  0  0  0  0
    6.6863    2.1488    0.0223 C   0  0  0  0  0  0  0  0  0  0  0  0
    7.3792    3.1627    0.0003 O   0  0  0  0  0  0  0  0  0  0  0  0
    4.5766    3.4601    0.0399 C   0  0  0  0  0  0  0  0  0  0  0  0
    3.1841    3.5344    0.0684 C   0  0  0  0  0  0  0  0  0  0  0  0
    2.4219    2.3650    0.0911 C   0  0  0  0  0  0  0  0  0  0  0  0
    1.0597    2.4819    0.1257 O   0  0  0  0  0  0  0  0  0  0  0  0
    0.6796   -1.1796    0.0592 H   0  0  0  0  0  0  0  0  0  0  0  0
    0.6220    0.3327   -0.8379 H   0  0  0  0  0  0  0  0  0  0  0  0
    0.6087    0.3154    0.9811 H   0  0  0  0  0  0  0  0  0  0  0  0
    4.9356    0.0682    0.0678 H   0  0  0  0  0  0  0  0  0  0  0  0
    7.1456    1.1474    0.0280 H   0  0  0  0  0  0  0  0  0  0  0  0
    5.1664    4.3742    0.0174 H   0  0  0  0  0  0  0  0  0  0  0  0
    2.7103    4.5113    0.0712 H   0  0  0  0  0  0  0  0  0  0  0  0
    0.7962    3.4149    0.1509 H   0  0  0  0  0  0  0  0  0  0  0  0
  1  2  1  0  0  0  0
  1 12  1  0  0  0  0
  1 13  1  0  0  0  0
  1 14  1  0  0  0  0
  2  3  1  0  0  0  0
  3  4  1  0  0  0  0
  3 10  2  0  0  0  0
  4  5  2  0  0  0  0
  4 15  1  0  0  0  0
  5  6  1  0  0  0  0
  5  8  1  0  0  0  0
  6  7  2  0  0  0  0
  6 16  1  0  0  0  0
  8  9  2  0  0  0  0
  8 17  1  0  0  0  0
  9 10  1  0  0  0  0
  9 18  1  0  0  0  0
 10 11  1  0  0  0  0
 11 19  1  0  0  0  0
M  END
$$$$
