
 OpenBabel07222214443D

 26 26  0  0  0  0  0  0  0  0999 V2000
    0.9102   -0.0826    0.0138 C   0  0  0  0  0  0  0  0  0  0  0  0
    2.4172   -0.0526    0.0134 C   0  0  0  0  0  0  0  0  0  0  0  0
    3.1199   -0.7692    0.9097 C   0  0  0  0  0  0  0  0  0  0  0  0
    3.1125    0.7890   -1.0494 C   0  0  0  0  0  0  0  0  0  0  0  0
    2.9300    0.1499   -2.4320 C   0  0  0  0  0  0  0  0  0  0  0  0
    3.5787    0.9694   -3.5434 C   0  0  0  0  0  0  0  0  0  0  0  0
    3.3924    2.4560   -3.4090 C   0  0  0  0  0  0  0  0  0  0  0  0
    2.9688    3.0280   -2.2687 C   0  0  0  0  0  0  0  0  0  0  0  0
    2.6253    2.2526   -1.0333 C   0  0  0  0  0  0  0  0  0  0  0  0
    3.7085    3.2692   -4.6272 C   0  0  0  0  0  0  0  0  0  0  0  0
    0.5125   -0.7427    0.7894 H   0  0  0  0  0  0  0  0  0  0  0  0
    0.5272   -0.4379   -0.9475 H   0  0  0  0  0  0  0  0  0  0  0  0
    0.4961    0.9115    0.2046 H   0  0  0  0  0  0  0  0  0  0  0  0
    2.6223   -1.3793    1.6563 H   0  0  0  0  0  0  0  0  0  0  0  0
    4.2049   -0.7744    0.9121 H   0  0  0  0  0  0  0  0  0  0  0  0
    4.1946    0.8076   -0.8445 H   0  0  0  0  0  0  0  0  0  0  0  0
    1.8638    0.0385   -2.6622 H   0  0  0  0  0  0  0  0  0  0  0  0
    3.3577   -0.8613   -2.4425 H   0  0  0  0  0  0  0  0  0  0  0  0
    3.1572    0.6291   -4.4972 H   0  0  0  0  0  0  0  0  0  0  0  0
    4.6550    0.7632   -3.5716 H   0  0  0  0  0  0  0  0  0  0  0  0
    2.8339    4.1057   -2.2103 H   0  0  0  0  0  0  0  0  0  0  0  0
    1.5368    2.3109   -0.9384 H   0  0  0  0  0  0  0  0  0  0  0  0
    3.0425    2.7571   -0.1527 H   0  0  0  0  0  0  0  0  0  0  0  0
    4.0076    2.6227   -5.4592 H   0  0  0  0  0  0  0  0  0  0  0  0
    4.5367    3.9548   -4.4273 H   0  0  0  0  0  0  0  0  0  0  0  0
    2.8321    3.8380   -4.9539 H   0  0  0  0  0  0  0  0  0  0  0  0
  1  2  1  0  0  0  0
  1 11  1  0  0  0  0
  1 12  1  0  0  0  0
  1 13  1  0  0  0  0
  2  3  2  0  0  0  0
  2  4  1  0  0  0  0
  3 14  1  0  0  0  0
  3 15  1  0  0  0  0
  4  5  1  0  0  0  0
  4  9  1  0  0  0  0
  4 16  1  0  0  0  0
  5  6  1  0  0  0  0
  5 17  1  0  0  0  0
  5 18  1  0  0  0  0
  6  7  1  0  0  0  0
  6 19  1  0  0  0  0
  6 20  1  0  0  0  0
  7  8  2  0  0  0  0
  7 10  1  0  0  0  0
  8  9  1  0  0  0  0
  8 21  1  0  0  0  0
  9 22  1  0  0  0  0
  9 23  1  0  0  0  0
 10 24  1  0  0  0  0
 10 25  1  0  0  0  0
 10 26  1  0  0  0  0
M  END
$$$$
