
 OpenBabel07122215493D

 30 29  0  0  0  0  0  0  0  0999 V2000
    0.9385   -0.0164   -0.1141 C   0  0  0  0  0  0  0  0  0  0  0  0
    2.4571   -0.0067   -0.1062 C   0  0  0  0  0  0  0  0  0  0  0  0
    2.9889    1.1142    0.7822 C   0  0  0  0  0  0  0  0  0  0  0  0
    4.5143    1.1259    0.7921 C   0  0  0  0  0  0  0  0  0  0  0  0
    5.0395    2.2487    1.6821 C   0  0  0  0  0  0  0  0  0  0  0  0
    6.5650    2.2586    1.6920 C   0  0  0  0  0  0  0  0  0  0  0  0
    7.0957    3.3790    2.5818 C   0  0  0  0  0  0  0  0  0  0  0  0
    8.6242    3.3900    2.5899 C   0  0  0  0  0  0  0  0  0  0  0  0
    9.1466    4.5114    3.4806 C   0  0  0  0  0  0  0  0  0  0  0  0
   10.9603    4.5592    3.4519 S   0  0  0  0  0  0  0  0  0  0  0  0
    0.5678   -0.8231   -0.7536 H   0  0  0  0  0  0  0  0  0  0  0  0
    0.5448    0.9310   -0.4949 H   0  0  0  0  0  0  0  0  0  0  0  0
    0.5448   -0.1712    0.8954 H   0  0  0  0  0  0  0  0  0  0  0  0
    2.8255    0.1223   -1.1304 H   0  0  0  0  0  0  0  0  0  0  0  0
    2.8255   -0.9743    0.2528 H   0  0  0  0  0  0  0  0  0  0  0  0
    2.6156    0.9838    1.8051 H   0  0  0  0  0  0  0  0  0  0  0  0
    2.6157    2.0802    0.4222 H   0  0  0  0  0  0  0  0  0  0  0  0
    4.8902    1.2586   -0.2296 H   0  0  0  0  0  0  0  0  0  0  0  0
    4.8900    0.1617    1.1534 H   0  0  0  0  0  0  0  0  0  0  0  0
    4.6636    2.1169    2.7041 H   0  0  0  0  0  0  0  0  0  0  0  0
    4.6648    3.2135    1.3210 H   0  0  0  0  0  0  0  0  0  0  0  0
    6.9385    2.3906    0.6692 H   0  0  0  0  0  0  0  0  0  0  0  0
    6.9377    1.2925    2.0512 H   0  0  0  0  0  0  0  0  0  0  0  0
    6.7204    3.2466    3.6041 H   0  0  0  0  0  0  0  0  0  0  0  0
    6.7205    4.3440    2.2214 H   0  0  0  0  0  0  0  0  0  0  0  0
    8.9872    3.5196    1.5623 H   0  0  0  0  0  0  0  0  0  0  0  0
    8.9901    2.4195    2.9471 H   0  0  0  0  0  0  0  0  0  0  0  0
    8.8165    4.3651    4.5142 H   0  0  0  0  0  0  0  0  0  0  0  0
    8.7698    5.4801    3.1383 H   0  0  0  0  0  0  0  0  0  0  0  0
   11.1565    3.3242    3.9364 H   0  0  0  0  0  0  0  0  0  0  0  0
  1  2  1  0  0  0  0
  1 11  1  0  0  0  0
  1 12  1  0  0  0  0
  1 13  1  0  0  0  0
  2  3  1  0  0  0  0
  2 14  1  0  0  0  0
  2 15  1  0  0  0  0
  3  4  1  0  0  0  0
  3 16  1  0  0  0  0
  3 17  1  0  0  0  0
  4  5  1  0  0  0  0
  4 18  1  0  0  0  0
  4 19  1  0  0  0  0
  5  6  1  0  0  0  0
  5 20  1  0  0  0  0
  5 21  1  0  0  0  0
  6  7  1  0  0  0  0
  6 22  1  0  0  0  0
  6 23  1  0  0  0  0
  7  8  1  0  0  0  0
  7 24  1  0  0  0  0
  7 25  1  0  0  0  0
  8  9  1  0  0  0  0
  8 26  1  0  0  0  0
  8 27  1  0  0  0  0
  9 10  1  0  0  0  0
  9 28  1  0  0  0  0
  9 29  1  0  0  0  0
 10 30  1  0  0  0  0
M  END
$$$$
