
 OpenBabel07202215583D

 34 33  0  0  0  0  0  0  0  0999 V2000
    1.0385   -0.0052   -0.0659 C   0  0  0  0  0  0  0  0  0  0  0  0
    2.5546   -0.0021   -0.0727 C   0  0  0  0  0  0  0  0  0  0  0  0
    3.0784    0.5813   -1.3775 C   0  0  0  0  0  0  0  0  0  0  0  0
    4.5988    0.5857   -1.3873 C   0  0  0  0  0  0  0  0  0  0  0  0
    5.1129    1.1697   -2.6934 C   0  0  0  0  0  0  0  0  0  0  0  0
    6.6324    1.1738   -2.7026 C   0  0  0  0  0  0  0  0  0  0  0  0
    7.1468    1.7578   -4.0085 C   0  0  0  0  0  0  0  0  0  0  0  0
    8.6674    1.7623   -4.0187 C   0  0  0  0  0  0  0  0  0  0  0  0
    9.1905    2.3458   -5.3236 C   0  0  0  0  0  0  0  0  0  0  0  0
   10.7115    2.3485   -5.3296 C   0  0  0  0  0  0  0  0  0  0  0  0
   11.2431    2.9223   -6.6129 C   0  0  0  0  0  0  0  0  0  0  0  0
   12.4457    3.0256   -6.8438 O   0  0  0  0  0  0  0  0  0  0  0  0
    0.6646   -0.4244    0.8717 H   0  0  0  0  0  0  0  0  0  0  0  0
    0.6494   -0.6068   -0.8935 H   0  0  0  0  0  0  0  0  0  0  0  0
    0.6494    1.0128   -0.1693 H   0  0  0  0  0  0  0  0  0  0  0  0
    2.9256   -1.0259    0.0538 H   0  0  0  0  0  0  0  0  0  0  0  0
    2.9256    0.5862    0.7747 H   0  0  0  0  0  0  0  0  0  0  0  0
    2.7055    1.6052   -1.5050 H   0  0  0  0  0  0  0  0  0  0  0  0
    2.7055   -0.0063   -2.2255 H   0  0  0  0  0  0  0  0  0  0  0  0
    4.9761   -0.4368   -1.2640 H   0  0  0  0  0  0  0  0  0  0  0  0
    4.9761    1.1756   -0.5430 H   0  0  0  0  0  0  0  0  0  0  0  0
    4.7372    2.1928   -2.8183 H   0  0  0  0  0  0  0  0  0  0  0  0
    4.7372    0.5807   -3.5392 H   0  0  0  0  0  0  0  0  0  0  0  0
    7.0079    0.1507   -2.5776 H   0  0  0  0  0  0  0  0  0  0  0  0
    7.0079    1.7628   -1.8567 H   0  0  0  0  0  0  0  0  0  0  0  0
    6.7694    2.7803   -4.1319 H   0  0  0  0  0  0  0  0  0  0  0  0
    6.7694    1.1680   -4.8528 H   0  0  0  0  0  0  0  0  0  0  0  0
    9.0404    0.7385   -3.8917 H   0  0  0  0  0  0  0  0  0  0  0  0
    9.0404    2.3503   -3.1710 H   0  0  0  0  0  0  0  0  0  0  0  0
    8.8118    3.3677   -5.4528 H   0  0  0  0  0  0  0  0  0  0  0  0
    8.8118    1.7608   -6.1713 H   0  0  0  0  0  0  0  0  0  0  0  0
   11.0893    1.3258   -5.2280 H   0  0  0  0  0  0  0  0  0  0  0  0
   11.0893    2.9547   -4.4997 H   0  0  0  0  0  0  0  0  0  0  0  0
   10.4984    3.2544   -7.3554 H   0  0  0  0  0  0  0  0  0  0  0  0
  1  2  1  0  0  0  0
  1 13  1  0  0  0  0
  1 14  1  0  0  0  0
  1 15  1  0  0  0  0
  2  3  1  0  0  0  0
  2 16  1  0  0  0  0
  2 17  1  0  0  0  0
  3  4  1  0  0  0  0
  3 18  1  0  0  0  0
  3 19  1  0  0  0  0
  4  5  1  0  0  0  0
  4 20  1  0  0  0  0
  4 21  1  0  0  0  0
  5  6  1  0  0  0  0
  5 22  1  0  0  0  0
  5 23  1  0  0  0  0
  6  7  1  0  0  0  0
  6 24  1  0  0  0  0
  6 25  1  0  0  0  0
  7  8  1  0  0  0  0
  7 26  1  0  0  0  0
  7 27  1  0  0  0  0
  8  9  1  0  0  0  0
  8 28  1  0  0  0  0
  8 29  1  0  0  0  0
  9 10  1  0  0  0  0
  9 30  1  0  0  0  0
  9 31  1  0  0  0  0
 10 11  1  0  0  0  0
 10 32  1  0  0  0  0
 10 33  1  0  0  0  0
 11 12  2  0  0  0  0
 11 34  1  0  0  0  0
M  END
$$$$
