
 OpenBabel07202215583D

  8  8  0  0  0  0  0  0  0  0999 V2000
   -1.1262   -0.0434    0.0020 S   0  0  0  0  0  0  0  0  0  0  0  0
   -0.0068    1.2564    0.0015 C   0  0  0  0  0  0  0  0  0  0  0  0
    1.2801    0.7617   -0.0050 C   0  0  0  0  0  0  0  0  0  0  0  0
    1.3919   -0.6151   -0.0080 N   0  0  0  0  0  0  0  0  0  0  0  0
    0.1887   -1.1462   -0.0058 C   0  0  0  0  0  0  0  0  0  0  0  0
   -0.3324    2.2864    0.0051 H   0  0  0  0  0  0  0  0  0  0  0  0
    2.1796    1.3653   -0.0081 H   0  0  0  0  0  0  0  0  0  0  0  0
    0.0294   -2.2166   -0.0091 H   0  0  0  0  0  0  0  0  0  0  0  0
  1  2  1  0  0  0  0
  1  5  1  0  0  0  0
  2  3  2  0  0  0  0
  2  6  1  0  0  0  0
  3  4  1  0  0  0  0
  3  7  1  0  0  0  0
  4  5  2  0  0  0  0
  5  8  1  0  0  0  0
M  END
$$$$
