
 OpenBabel07222214433D

 28 27  0  0  0  0  0  0  0  0999 V2000
    0.9147   -0.0542   -0.0476 C   0  0  0  0  0  0  0  0  0  0  0  0
    2.4315   -0.0581   -0.0435 C   0  0  0  0  0  0  0  0  0  0  0  0
    2.9621   -1.0421    0.9901 C   0  0  0  0  0  0  0  0  0  0  0  0
    4.4863   -1.0462    0.9945 C   0  0  0  0  0  0  0  0  0  0  0  0
    5.0010   -2.0316    2.0295 C   0  0  0  0  0  0  0  0  0  0  0  0
    6.5244   -2.0673    2.0671 C   0  0  0  0  0  0  0  0  0  0  0  0
    6.9887   -3.0615    3.1114 C   0  0  0  0  0  0  0  0  0  0  0  0
    6.1859   -3.7075    3.7900 O   0  0  0  0  0  0  0  0  0  0  0  0
    8.4840   -3.2259    3.2841 C   0  0  0  0  0  0  0  0  0  0  0  0
    8.7779   -4.2538    4.3638 C   0  0  0  0  0  0  0  0  0  0  0  0
    0.5399    0.6539   -0.7914 H   0  0  0  0  0  0  0  0  0  0  0  0
    0.5252    0.2369    0.9332 H   0  0  0  0  0  0  0  0  0  0  0  0
    0.5252   -1.0481   -0.2902 H   0  0  0  0  0  0  0  0  0  0  0  0
    2.8006    0.9498    0.1785 H   0  0  0  0  0  0  0  0  0  0  0  0
    2.8006   -0.3294   -1.0393 H   0  0  0  0  0  0  0  0  0  0  0  0
    2.5890   -2.0504    0.7700 H   0  0  0  0  0  0  0  0  0  0  0  0
    2.5890   -0.7727    1.9864 H   0  0  0  0  0  0  0  0  0  0  0  0
    4.8607   -0.0410    1.2207 H   0  0  0  0  0  0  0  0  0  0  0  0
    4.8607   -1.3216    0.0016 H   0  0  0  0  0  0  0  0  0  0  0  0
    4.6141   -3.0346    1.8064 H   0  0  0  0  0  0  0  0  0  0  0  0
    4.6141   -1.7594    3.0204 H   0  0  0  0  0  0  0  0  0  0  0  0
    6.9203   -1.0777    2.3199 H   0  0  0  0  0  0  0  0  0  0  0  0
    6.9203   -2.3685    1.0911 H   0  0  0  0  0  0  0  0  0  0  0  0
    8.9162   -2.2587    3.5606 H   0  0  0  0  0  0  0  0  0  0  0  0
    8.9162   -3.5496    2.3316 H   0  0  0  0  0  0  0  0  0  0  0  0
    8.3414   -3.9440    5.3201 H   0  0  0  0  0  0  0  0  0  0  0  0
    9.8536   -4.3847    4.5013 H   0  0  0  0  0  0  0  0  0  0  0  0
    8.3414   -5.2242    4.1014 H   0  0  0  0  0  0  0  0  0  0  0  0
  1  2  1  0  0  0  0
  1 11  1  0  0  0  0
  1 12  1  0  0  0  0
  1 13  1  0  0  0  0
  2  3  1  0  0  0  0
  2 14  1  0  0  0  0
  2 15  1  0  0  0  0
  3  4  1  0  0  0  0
  3 16  1  0  0  0  0
  3 17  1  0  0  0  0
  4  5  1  0  0  0  0
  4 18  1  0  0  0  0
  4 19  1  0  0  0  0
  5  6  1  0  0  0  0
  5 20  1  0  0  0  0
  5 21  1  0  0  0  0
  6  7  1  0  0  0  0
  6 22  1  0  0  0  0
  6 23  1  0  0  0  0
  7  8  2  0  0  0  0
  7  9  1  0  0  0  0
  9 10  1  0  0  0  0
  9 24  1  0  0  0  0
  9 25  1  0  0  0  0
 10 26  1  0  0  0  0
 10 27  1  0  0  0  0
 10 28  1  0  0  0  0
M  END
$$$$
