
 OpenBabel07222214433D

 28 27  0  0  0  0  0  0  0  0999 V2000
    1.0607   -0.0094   -0.0608 C   0  0  0  0  0  0  0  0  0  0  0  0
    2.5765   -0.0012   -0.0579 C   0  0  0  0  0  0  0  0  0  0  0  0
    3.0926    1.3508    0.4116 C   0  0  0  0  0  0  0  0  0  0  0  0
    4.6097    1.3724    0.4191 C   0  0  0  0  0  0  0  0  0  0  0  0
    5.1074    2.7325    0.8914 C   0  0  0  0  0  0  0  0  0  0  0  0
    6.6211    2.7300    0.8906 C   0  0  0  0  0  0  0  0  0  0  0  0
    7.2047    4.0520    1.3497 C   0  0  0  0  0  0  0  0  0  0  0  0
    8.7211    4.0743    1.3574 C   0  0  0  0  0  0  0  0  0  0  0  0
    9.5153    2.8602    0.9358 C   0  0  0  0  0  0  0  0  0  0  0  0
    9.3143    5.0998    1.7136 O   0  0  0  0  0  0  0  0  0  0  0  0
    0.6871   -0.9795   -0.3977 H   0  0  0  0  0  0  0  0  0  0  0  0
    0.6718    0.7638   -0.7312 H   0  0  0  0  0  0  0  0  0  0  0  0
    0.6718    0.1818    0.9446 H   0  0  0  0  0  0  0  0  0  0  0  0
    2.9490   -0.2144   -1.0667 H   0  0  0  0  0  0  0  0  0  0  0  0
    2.9490   -0.7938    0.6016 H   0  0  0  0  0  0  0  0  0  0  0  0
    2.7189    1.5641    1.4205 H   0  0  0  0  0  0  0  0  0  0  0  0
    2.7189    2.1435   -0.2479 H   0  0  0  0  0  0  0  0  0  0  0  0
    4.9931    1.1620   -0.5876 H   0  0  0  0  0  0  0  0  0  0  0  0
    4.9931    0.5833    1.0787 H   0  0  0  0  0  0  0  0  0  0  0  0
    4.7341    2.9407    1.9007 H   0  0  0  0  0  0  0  0  0  0  0  0
    4.7341    3.5214    0.2284 H   0  0  0  0  0  0  0  0  0  0  0  0
    6.9703    2.5079   -0.1257 H   0  0  0  0  0  0  0  0  0  0  0  0
    6.9703    1.9258    1.5504 H   0  0  0  0  0  0  0  0  0  0  0  0
    6.8602    4.2745    2.3667 H   0  0  0  0  0  0  0  0  0  0  0  0
    6.8602    4.8570    0.6895 H   0  0  0  0  0  0  0  0  0  0  0  0
    8.9038    2.0091    0.6402 H   0  0  0  0  0  0  0  0  0  0  0  0
   10.1338    2.5326    1.7740 H   0  0  0  0  0  0  0  0  0  0  0  0
   10.1338    3.1227    0.0750 H   0  0  0  0  0  0  0  0  0  0  0  0
  1  2  1  0  0  0  0
  1 11  1  0  0  0  0
  1 12  1  0  0  0  0
  1 13  1  0  0  0  0
  2  3  1  0  0  0  0
  2 14  1  0  0  0  0
  2 15  1  0  0  0  0
  3  4  1  0  0  0  0
  3 16  1  0  0  0  0
  3 17  1  0  0  0  0
  4  5  1  0  0  0  0
  4 18  1  0  0  0  0
  4 19  1  0  0  0  0
  5  6  1  0  0  0  0
  5 20  1  0  0  0  0
  5 21  1  0  0  0  0
  6  7  1  0  0  0  0
  6 22  1  0  0  0  0
  6 23  1  0  0  0  0
  7  8  1  0  0  0  0
  7 24  1  0  0  0  0
  7 25  1  0  0  0  0
  8  9  1  0  0  0  0
  8 10  2  0  0  0  0
  9 26  1  0  0  0  0
  9 27  1  0  0  0  0
  9 28  1  0  0  0  0
M  END
$$$$
