
 OpenBabel07122215493D

 26 26  0  0  0  0  0  0  0  0999 V2000
    0.9652   -0.1324    0.4121 C   0  0  0  0  0  0  0  0  0  0  0  0
    2.3932   -0.2463    0.4054 O   0  0  0  0  0  0  0  0  0  0  0  0
    3.0248    0.8005    1.0182 C   0  0  0  0  0  0  0  0  0  0  0  0
    2.7117    0.9672    2.3253 N   0  0  0  0  0  0  0  0  0  0  0  0
    3.4149    1.9088    2.9758 C   0  0  0  0  0  0  0  0  0  0  0  0
    4.3880    2.6807    2.3610 C   0  0  0  0  0  0  0  0  0  0  0  0
    4.7047    2.5313    1.0545 N   0  0  0  0  0  0  0  0  0  0  0  0
    4.0263    1.5694    0.3685 C   0  0  0  0  0  0  0  0  0  0  0  0
    4.4155    1.4858   -1.1026 C   0  0  0  0  0  0  0  0  0  0  0  0
    3.5823    0.5348   -1.9673 C   0  0  0  0  0  0  0  0  0  0  0  0
    2.1591    1.0823   -2.0941 C   0  0  0  0  0  0  0  0  0  0  0  0
    4.0869    0.3216   -3.3852 C   0  0  0  0  0  0  0  0  0  0  0  0
    0.5934   -0.7528   -0.4143 H   0  0  0  0  0  0  0  0  0  0  0  0
    0.6100    0.8889    0.2259 H   0  0  0  0  0  0  0  0  0  0  0  0
    0.5295   -0.5052    1.3382 H   0  0  0  0  0  0  0  0  0  0  0  0
    3.1836    2.0278    4.0275 H   0  0  0  0  0  0  0  0  0  0  0  0
    4.9370    3.4368    2.9030 H   0  0  0  0  0  0  0  0  0  0  0  0
    5.4799    1.2198   -1.1607 H   0  0  0  0  0  0  0  0  0  0  0  0
    4.3347    2.4988   -1.5261 H   0  0  0  0  0  0  0  0  0  0  0  0
    3.6141   -0.4539   -1.4928 H   0  0  0  0  0  0  0  0  0  0  0  0
    2.0724    1.8446   -2.8692 H   0  0  0  0  0  0  0  0  0  0  0  0
    1.8390    1.5999   -1.1919 H   0  0  0  0  0  0  0  0  0  0  0  0
    1.4658    0.2672   -2.3173 H   0  0  0  0  0  0  0  0  0  0  0  0
    3.9616    1.2276   -3.9851 H   0  0  0  0  0  0  0  0  0  0  0  0
    3.4857   -0.4706   -3.8510 H   0  0  0  0  0  0  0  0  0  0  0  0
    5.1335    0.0145   -3.4130 H   0  0  0  0  0  0  0  0  0  0  0  0
  1  2  1  0  0  0  0
  1 13  1  0  0  0  0
  1 14  1  0  0  0  0
  1 15  1  0  0  0  0
  2  3  1  0  0  0  0
  3  4  1  0  0  0  0
  3  8  2  0  0  0  0
  4  5  2  0  0  0  0
  5  6  1  0  0  0  0
  5 16  1  0  0  0  0
  6  7  2  0  0  0  0
  6 17  1  0  0  0  0
  7  8  1  0  0  0  0
  8  9  1  0  0  0  0
  9 10  1  0  0  0  0
  9 18  1  0  0  0  0
  9 19  1  0  0  0  0
 10 11  1  0  0  0  0
 10 12  1  0  0  0  0
 10 20  1  0  0  0  0
 11 21  1  0  0  0  0
 11 22  1  0  0  0  0
 11 23  1  0  0  0  0
 12 24  1  0  0  0  0
 12 25  1  0  0  0  0
 12 26  1  0  0  0  0
M  END
$$$$
