
 OpenBabel07222214443D

 22 22  0  0  0  0  0  0  0  0999 V2000
    1.0289   -0.0382    0.0295 C   0  0  0  0  0  0  0  0  0  0  0  0
    2.4497    0.0006    0.0781 O   0  0  0  0  0  0  0  0  0  0  0  0
    3.0928   -0.1117   -1.1257 C   0  0  0  0  0  0  0  0  0  0  0  0
    4.2264   -0.9384   -1.2326 C   0  0  0  0  0  0  0  0  0  0  0  0
    5.0298   -0.8580   -2.3863 C   0  0  0  0  0  0  0  0  0  0  0  0
    4.6385   -0.0515   -3.4615 C   0  0  0  0  0  0  0  0  0  0  0  0
    3.4949    0.7394   -3.3617 C   0  0  0  0  0  0  0  0  0  0  0  0
    2.7352    0.7180   -2.1935 C   0  0  0  0  0  0  0  0  0  0  0  0
    5.3900   -0.0741   -4.7341 C   0  0  0  0  0  0  0  0  0  0  0  0
    5.0260    0.5781   -5.7118 O   0  0  0  0  0  0  0  0  0  0  0  0
    4.6486   -1.8767   -0.3191 O   0  0  0  0  0  0  0  0  0  0  0  0
    3.7704   -2.1731    0.7668 C   0  0  0  0  0  0  0  0  0  0  0  0
    0.6723   -0.0225    1.0645 H   0  0  0  0  0  0  0  0  0  0  0  0
    0.6771   -0.9649   -0.4349 H   0  0  0  0  0  0  0  0  0  0  0  0
    0.6127    0.8387   -0.4708 H   0  0  0  0  0  0  0  0  0  0  0  0
    5.9518   -1.4332   -2.4367 H   0  0  0  0  0  0  0  0  0  0  0  0
    3.2005    1.3900   -4.1828 H   0  0  0  0  0  0  0  0  0  0  0  0
    1.8791    1.3799   -2.1254 H   0  0  0  0  0  0  0  0  0  0  0  0
    6.2759   -0.7248   -4.7870 H   0  0  0  0  0  0  0  0  0  0  0  0
    4.1599   -3.0376    1.3123 H   0  0  0  0  0  0  0  0  0  0  0  0
    2.7636   -2.4433    0.4236 H   0  0  0  0  0  0  0  0  0  0  0  0
    3.7500   -1.3392    1.4749 H   0  0  0  0  0  0  0  0  0  0  0  0
  1  2  1  0  0  0  0
  1 13  1  0  0  0  0
  1 14  1  0  0  0  0
  1 15  1  0  0  0  0
  2  3  1  0  0  0  0
  3  4  2  0  0  0  0
  3  8  1  0  0  0  0
  4  5  1  0  0  0  0
  4 11  1  0  0  0  0
  5  6  2  0  0  0  0
  5 16  1  0  0  0  0
  6  7  1  0  0  0  0
  6  9  1  0  0  0  0
  7  8  2  0  0  0  0
  7 17  1  0  0  0  0
  8 18  1  0  0  0  0
  9 10  2  0  0  0  0
  9 19  1  0  0  0  0
 11 12  1  0  0  0  0
 12 20  1  0  0  0  0
 12 21  1  0  0  0  0
 12 22  1  0  0  0  0
M  END
$$$$
