
 OpenBabel07122215493D

 27 27  0  0  1  0  0  0  0  0999 V2000
    0.9112    0.0334    0.1516 C   0  0  0  0  0  0  0  0  0  0  0  0
    2.4436    0.0278    0.0985 C   0  0  2  0  0  0  0  0  0  0  0  0
    2.9520    1.0667   -0.9165 C   0  0  0  0  0  0  0  0  0  0  0  0
    2.5306    0.7141   -2.3457 C   0  0  0  0  0  0  0  0  0  0  0  0
    2.9939   -0.6753   -2.6964 C   0  0  0  0  0  0  0  0  0  0  0  0
    3.7944   -1.0415   -3.7175 C   0  0  0  0  0  0  0  0  0  0  0  0
    4.2686   -2.4604   -3.9353 C   0  0  0  0  0  0  0  0  0  0  0  0
    4.3108   -0.0497   -4.7271 C   0  0  0  0  0  0  0  0  0  0  0  0
    2.5447   -1.6815   -1.6823 C   0  0  0  0  0  0  0  0  0  0  0  0
    1.8495   -2.6508   -1.9791 O   0  0  0  0  0  0  0  0  0  0  0  0
    2.9632   -1.3667   -0.2692 C   0  0  0  0  0  0  0  0  0  0  0  0
    0.5404    1.0241    0.4292 H   0  0  0  0  0  0  0  0  0  0  0  0
    0.5455   -0.6979    0.8768 H   0  0  0  0  0  0  0  0  0  0  0  0
    0.4598   -0.2247   -0.8126 H   0  0  0  0  0  0  0  0  0  0  0  0
    2.8259    0.2932    1.0913 H   0  0  0  0  0  0  0  0  0  0  0  0
    4.0487    1.1224   -0.8660 H   0  0  0  0  0  0  0  0  0  0  0  0
    2.5757    2.0636   -0.6608 H   0  0  0  0  0  0  0  0  0  0  0  0
    2.9131    1.4902   -3.0083 H   0  0  0  0  0  0  0  0  0  0  0  0
    1.4411    0.7588   -2.4550 H   0  0  0  0  0  0  0  0  0  0  0  0
    3.9200   -3.1647   -3.1753 H   0  0  0  0  0  0  0  0  0  0  0  0
    5.3625   -2.5037   -3.9127 H   0  0  0  0  0  0  0  0  0  0  0  0
    3.9195   -2.8328   -4.9029 H   0  0  0  0  0  0  0  0  0  0  0  0
    3.9769    0.9737   -4.5488 H   0  0  0  0  0  0  0  0  0  0  0  0
    3.9651   -0.3146   -5.7296 H   0  0  0  0  0  0  0  0  0  0  0  0
    5.4042   -0.0220   -4.7121 H   0  0  0  0  0  0  0  0  0  0  0  0
    4.0593   -1.4060   -0.2247 H   0  0  0  0  0  0  0  0  0  0  0  0
    2.5782   -2.1326    0.4112 H   0  0  0  0  0  0  0  0  0  0  0  0
  1  2  1  0  0  0  0
  1 12  1  0  0  0  0
  1 13  1  0  0  0  0
  1 14  1  0  0  0  0
  2  3  1  0  0  0  0
  2 11  1  0  0  0  0
  2 15  1  1  0  0  0
  3  4  1  0  0  0  0
  3 16  1  0  0  0  0
  3 17  1  0  0  0  0
  4  5  1  0  0  0  0
  4 18  1  0  0  0  0
  4 19  1  0  0  0  0
  5  6  2  0  0  0  0
  5  9  1  0  0  0  0
  6  7  1  0  0  0  0
  6  8  1  0  0  0  0
  7 20  1  0  0  0  0
  7 21  1  0  0  0  0
  7 22  1  0  0  0  0
  8 23  1  0  0  0  0
  8 24  1  0  0  0  0
  8 25  1  0  0  0  0
  9 10  2  0  0  0  0
  9 11  1  0  0  0  0
 11 26  1  0  0  0  0
 11 27  1  0  0  0  0
M  END
$$$$
