
 OpenBabel07122215493D

 29 28  0  0  0  0  0  0  0  0999 V2000
    0.8844   -0.0022    0.0069 C   0  0  0  0  0  0  0  0  0  0  0  0
    2.4010   -0.0101    0.0041 C   0  0  0  0  0  0  0  0  0  0  0  0
    2.9260   -1.3591   -0.4708 C   0  0  0  0  0  0  0  0  0  0  0  0
    4.4482   -1.3721   -0.4754 C   0  0  0  0  0  0  0  0  0  0  0  0
    4.9692   -2.7227   -0.9508 C   0  0  0  0  0  0  0  0  0  0  0  0
    6.4934   -2.7321   -0.9542 C   0  0  0  0  0  0  0  0  0  0  0  0
    7.0301   -4.0760   -1.4273 C   0  0  0  0  0  0  0  0  0  0  0  0
    8.5545   -4.0947   -1.4339 C   0  0  0  0  0  0  0  0  0  0  0  0
    8.9691   -5.3893   -1.8896 O   0  0  0  0  0  0  0  0  0  0  0  0
   10.2989   -5.6090   -1.9670 C   0  0  0  0  0  0  0  0  0  0  0  0
   10.7891   -6.6658   -2.3391 O   0  0  0  0  0  0  0  0  0  0  0  0
    0.5104    0.9668    0.3481 H   0  0  0  0  0  0  0  0  0  0  0  0
    0.4947   -0.7773    0.6745 H   0  0  0  0  0  0  0  0  0  0  0  0
    0.4947   -0.1882   -0.9990 H   0  0  0  0  0  0  0  0  0  0  0  0
    2.7713    0.2003    1.0143 H   0  0  0  0  0  0  0  0  0  0  0  0
    2.7713    0.7868   -0.6514 H   0  0  0  0  0  0  0  0  0  0  0  0
    2.5518   -1.5690   -1.4804 H   0  0  0  0  0  0  0  0  0  0  0  0
    2.5518   -2.1552    0.1847 H   0  0  0  0  0  0  0  0  0  0  0  0
    4.8237   -1.1638    0.5340 H   0  0  0  0  0  0  0  0  0  0  0  0
    4.8237   -0.5774   -1.1316 H   0  0  0  0  0  0  0  0  0  0  0  0
    4.5919   -2.9301   -1.9598 H   0  0  0  0  0  0  0  0  0  0  0  0
    4.5919   -3.5164   -0.2943 H   0  0  0  0  0  0  0  0  0  0  0  0
    6.8628   -2.5204    0.0565 H   0  0  0  0  0  0  0  0  0  0  0  0
    6.8628   -1.9339   -1.6093 H   0  0  0  0  0  0  0  0  0  0  0  0
    6.6552   -4.3001   -2.4341 H   0  0  0  0  0  0  0  0  0  0  0  0
    6.6552   -4.8814   -0.7829 H   0  0  0  0  0  0  0  0  0  0  0  0
    8.9390   -3.9173   -0.4227 H   0  0  0  0  0  0  0  0  0  0  0  0
    8.9390   -3.3229   -2.1109 H   0  0  0  0  0  0  0  0  0  0  0  0
   10.9021   -4.7412   -1.6615 H   0  0  0  0  0  0  0  0  0  0  0  0
  1  2  1  0  0  0  0
  1 12  1  0  0  0  0
  1 13  1  0  0  0  0
  1 14  1  0  0  0  0
  2  3  1  0  0  0  0
  2 15  1  0  0  0  0
  2 16  1  0  0  0  0
  3  4  1  0  0  0  0
  3 17  1  0  0  0  0
  3 18  1  0  0  0  0
  4  5  1  0  0  0  0
  4 19  1  0  0  0  0
  4 20  1  0  0  0  0
  5  6  1  0  0  0  0
  5 21  1  0  0  0  0
  5 22  1  0  0  0  0
  6  7  1  0  0  0  0
  6 23  1  0  0  0  0
  6 24  1  0  0  0  0
  7  8  1  0  0  0  0
  7 25  1  0  0  0  0
  7 26  1  0  0  0  0
  8  9  1  0  0  0  0
  8 27  1  0  0  0  0
  8 28  1  0  0  0  0
  9 10  1  0  0  0  0
 10 11  2  0  0  0  0
 10 29  1  0  0  0  0
M  END
$$$$
