
 OpenBabel07222214433D

 22 21  0  0  0  0  0  0  0  0999 V2000
    0.9010    0.0245   -0.0108 C   0  0  0  0  0  0  0  0  0  0  0  0
    2.4207    0.0273   -0.0106 C   0  0  0  0  0  0  0  0  0  0  0  0
    2.9457    1.4528    0.0716 C   0  0  0  0  0  0  0  0  0  0  0  0
    4.4709    1.5070    0.0747 C   0  0  0  0  0  0  0  0  0  0  0  0
    4.9364    2.9480    0.1578 C   0  0  0  0  0  0  0  0  0  0  0  0
    4.1339    3.8834    0.2117 O   0  0  0  0  0  0  0  0  0  0  0  0
    6.4325    3.1874    0.1716 C   0  0  0  0  0  0  0  0  0  0  0  0
    6.7271    4.6761    0.2574 C   0  0  0  0  0  0  0  0  0  0  0  0
    0.5219   -0.9992   -0.0698 H   0  0  0  0  0  0  0  0  0  0  0  0
    0.5108    0.5857   -0.8664 H   0  0  0  0  0  0  0  0  0  0  0  0
    0.5108    0.4836    0.9037 H   0  0  0  0  0  0  0  0  0  0  0  0
    2.7879   -0.4541   -0.9238 H   0  0  0  0  0  0  0  0  0  0  0  0
    2.7879   -0.5559    0.8412 H   0  0  0  0  0  0  0  0  0  0  0  0
    2.5608    1.9334    0.9807 H   0  0  0  0  0  0  0  0  0  0  0  0
    2.5608    2.0347   -0.7763 H   0  0  0  0  0  0  0  0  0  0  0  0
    4.8680    1.0610   -0.8437 H   0  0  0  0  0  0  0  0  0  0  0  0
    4.8680    0.9584    0.9357 H   0  0  0  0  0  0  0  0  0  0  0  0
    6.8656    2.7735   -0.7449 H   0  0  0  0  0  0  0  0  0  0  0  0
    6.8656    2.6710    1.0344 H   0  0  0  0  0  0  0  0  0  0  0  0
    6.2910    5.2057   -0.5973 H   0  0  0  0  0  0  0  0  0  0  0  0
    7.8029    4.8657    0.2683 H   0  0  0  0  0  0  0  0  0  0  0  0
    6.2910    5.1040    1.1672 H   0  0  0  0  0  0  0  0  0  0  0  0
  1  2  1  0  0  0  0
  1  9  1  0  0  0  0
  1 10  1  0  0  0  0
  1 11  1  0  0  0  0
  2  3  1  0  0  0  0
  2 12  1  0  0  0  0
  2 13  1  0  0  0  0
  3  4  1  0  0  0  0
  3 14  1  0  0  0  0
  3 15  1  0  0  0  0
  4  5  1  0  0  0  0
  4 16  1  0  0  0  0
  4 17  1  0  0  0  0
  5  6  2  0  0  0  0
  5  7  1  0  0  0  0
  7  8  1  0  0  0  0
  7 18  1  0  0  0  0
  7 19  1  0  0  0  0
  8 20  1  0  0  0  0
  8 21  1  0  0  0  0
  8 22  1  0  0  0  0
M  END
$$$$
