
 OpenBabel07202215583D

 27 26  0  0  0  0  0  0  0  0999 V2000
    1.0011   -0.0326   -0.0596 C   0  0  0  0  0  0  0  0  0  0  0  0
    2.5202   -0.0396   -0.0702 C   0  0  0  0  0  0  0  0  0  0  0  0
    3.0530   -0.8441   -1.2526 C   0  0  0  0  0  0  0  0  0  0  0  0
    4.5794   -0.8547   -1.2683 C   0  0  0  0  0  0  0  0  0  0  0  0
    5.1011   -1.6629   -2.4541 C   0  0  0  0  0  0  0  0  0  0  0  0
    6.6273   -1.6789   -2.4756 C   0  0  0  0  0  0  0  0  0  0  0  0
    7.1494   -2.4868   -3.6644 C   0  0  0  0  0  0  0  0  0  0  0  0
    8.6741   -2.4969   -3.6771 C   0  0  0  0  0  0  0  0  0  0  0  0
    9.2974   -3.4113   -5.1155 S   0  0  0  0  0  0  0  0  0  0  0  0
    0.6302    0.5462    0.7916 H   0  0  0  0  0  0  0  0  0  0  0  0
    0.6070   -1.0505    0.0209 H   0  0  0  0  0  0  0  0  0  0  0  0
    0.6070    0.4166   -0.9767 H   0  0  0  0  0  0  0  0  0  0  0  0
    2.8881   -0.4685    0.8690 H   0  0  0  0  0  0  0  0  0  0  0  0
    2.8881    0.9912   -0.1237 H   0  0  0  0  0  0  0  0  0  0  0  0
    2.6791   -0.4140   -2.1899 H   0  0  0  0  0  0  0  0  0  0  0  0
    2.6787   -1.8732   -1.1975 H   0  0  0  0  0  0  0  0  0  0  0  0
    4.9559   -1.2862   -0.3328 H   0  0  0  0  0  0  0  0  0  0  0  0
    4.9563    0.1731   -1.3264 H   0  0  0  0  0  0  0  0  0  0  0  0
    4.7236   -1.2302   -3.3888 H   0  0  0  0  0  0  0  0  0  0  0  0
    4.7215   -2.6896   -2.3962 H   0  0  0  0  0  0  0  0  0  0  0  0
    7.0041   -2.1112   -1.5403 H   0  0  0  0  0  0  0  0  0  0  0  0
    7.0049   -0.6513   -2.5329 H   0  0  0  0  0  0  0  0  0  0  0  0
    6.7643   -2.0475   -4.5935 H   0  0  0  0  0  0  0  0  0  0  0  0
    6.7637   -3.5118   -3.6018 H   0  0  0  0  0  0  0  0  0  0  0  0
    9.0619   -2.9682   -2.7681 H   0  0  0  0  0  0  0  0  0  0  0  0
    9.0640   -1.4754   -3.7220 H   0  0  0  0  0  0  0  0  0  0  0  0
    8.7357   -4.5894   -4.8073 H   0  0  0  0  0  0  0  0  0  0  0  0
  1  2  1  0  0  0  0
  1 10  1  0  0  0  0
  1 11  1  0  0  0  0
  1 12  1  0  0  0  0
  2  3  1  0  0  0  0
  2 13  1  0  0  0  0
  2 14  1  0  0  0  0
  3  4  1  0  0  0  0
  3 15  1  0  0  0  0
  3 16  1  0  0  0  0
  4  5  1  0  0  0  0
  4 17  1  0  0  0  0
  4 18  1  0  0  0  0
  5  6  1  0  0  0  0
  5 19  1  0  0  0  0
  5 20  1  0  0  0  0
  6  7  1  0  0  0  0
  6 21  1  0  0  0  0
  6 22  1  0  0  0  0
  7  8  1  0  0  0  0
  7 23  1  0  0  0  0
  7 24  1  0  0  0  0
  8  9  1  0  0  0  0
  8 25  1  0  0  0  0
  8 26  1  0  0  0  0
  9 27  1  0  0  0  0
M  END
$$$$
