
 OpenBabel07222214443D

 27 27  0  0  0  0  0  0  0  0999 V2000
    0.9596    0.0315    0.0428 C   0  0  0  0  0  0  0  0  0  0  0  0
    2.4614    0.0250    0.0845 C   0  0  0  0  0  0  0  0  0  0  0  0
    3.1386    0.8569    0.9020 C   0  0  0  0  0  0  0  0  0  0  0  0
    3.2016   -0.8790   -0.8239 C   0  0  0  0  0  0  0  0  0  0  0  0
    4.2994   -1.6281   -0.3685 C   0  0  0  0  0  0  0  0  0  0  0  0
    5.0636   -2.4210   -1.2415 C   0  0  0  0  0  0  0  0  0  0  0  0
    4.6503   -2.5712   -2.5764 C   0  0  0  0  0  0  0  0  0  0  0  0
    3.5648   -1.8242   -3.0385 C   0  0  0  0  0  0  0  0  0  0  0  0
    2.8534   -0.9828   -2.1748 C   0  0  0  0  0  0  0  0  0  0  0  0
    5.3275   -3.4693   -3.3490 O   0  0  0  0  0  0  0  0  0  0  0  0
    4.9136   -3.7089   -4.6791 C   0  0  0  0  0  0  0  0  0  0  0  0
    6.1855   -2.9672   -0.6585 O   0  0  0  0  0  0  0  0  0  0  0  0
    7.1396   -3.5710   -1.5300 C   0  0  0  0  0  0  0  0  0  0  0  0
    0.5390    0.7339    0.7724 H   0  0  0  0  0  0  0  0  0  0  0  0
    0.5640   -0.9608    0.2831 H   0  0  0  0  0  0  0  0  0  0  0  0
    0.5828    0.3333   -0.9396 H   0  0  0  0  0  0  0  0  0  0  0  0
    2.6198    1.5398    1.5650 H   0  0  0  0  0  0  0  0  0  0  0  0
    4.2224    0.8910    0.9201 H   0  0  0  0  0  0  0  0  0  0  0  0
    4.5773   -1.5940    0.6838 H   0  0  0  0  0  0  0  0  0  0  0  0
    3.2545   -1.8651   -4.0770 H   0  0  0  0  0  0  0  0  0  0  0  0
    2.0328   -0.3996   -2.5841 H   0  0  0  0  0  0  0  0  0  0  0  0
    5.5604   -4.4963   -5.0791 H   0  0  0  0  0  0  0  0  0  0  0  0
    5.0554   -2.8146   -5.2910 H   0  0  0  0  0  0  0  0  0  0  0  0
    3.8828   -4.0719   -4.7170 H   0  0  0  0  0  0  0  0  0  0  0  0
    8.0512   -3.7863   -0.9669 H   0  0  0  0  0  0  0  0  0  0  0  0
    7.4264   -2.9047   -2.3541 H   0  0  0  0  0  0  0  0  0  0  0  0
    6.7600   -4.5323   -1.8913 H   0  0  0  0  0  0  0  0  0  0  0  0
  1  2  1  0  0  0  0
  1 14  1  0  0  0  0
  1 15  1  0  0  0  0
  1 16  1  0  0  0  0
  2  3  2  0  0  0  0
  2  4  1  0  0  0  0
  3 17  1  0  0  0  0
  3 18  1  0  0  0  0
  4  5  2  0  0  0  0
  4  9  1  0  0  0  0
  5  6  1  0  0  0  0
  5 19  1  0  0  0  0
  6  7  2  0  0  0  0
  6 12  1  0  0  0  0
  7  8  1  0  0  0  0
  7 10  1  0  0  0  0
  8  9  2  0  0  0  0
  8 20  1  0  0  0  0
  9 21  1  0  0  0  0
 10 11  1  0  0  0  0
 11 22  1  0  0  0  0
 11 23  1  0  0  0  0
 11 24  1  0  0  0  0
 12 13  1  0  0  0  0
 13 25  1  0  0  0  0
 13 26  1  0  0  0  0
 13 27  1  0  0  0  0
M  END
$$$$
