
 OpenBabel07122215493D

 21 20  0  0  0  0  0  0  0  0999 V2000
    1.1485   -0.0225    0.0934 C   0  0  0  0  0  0  0  0  0  0  0  0
    2.6474    0.0270    0.0615 C   0  0  0  0  0  0  0  0  0  0  0  0
    3.2807    0.9096   -0.5077 O   0  0  0  0  0  0  0  0  0  0  0  0
    3.1970   -1.0231    0.7387 O   0  0  0  0  0  0  0  0  0  0  0  0
    4.6305   -0.9965    0.7215 C   0  0  0  0  0  0  0  0  0  0  0  0
    5.1972   -2.1696    1.4780 C   0  0  0  0  0  0  0  0  0  0  0  0
    6.5207   -2.3989    1.6259 C   0  0  0  0  0  0  0  0  0  0  0  0
    7.5748   -1.4923    1.0412 C   0  0  0  0  0  0  0  0  0  0  0  0
    7.0472   -3.5866    2.3918 C   0  0  0  0  0  0  0  0  0  0  0  0
    0.7521    0.8360   -0.4602 H   0  0  0  0  0  0  0  0  0  0  0  0
    0.7864    0.0428    1.1220 H   0  0  0  0  0  0  0  0  0  0  0  0
    0.7864   -0.9326   -0.3904 H   0  0  0  0  0  0  0  0  0  0  0  0
    4.9737   -0.0696    1.1969 H   0  0  0  0  0  0  0  0  0  0  0  0
    4.9737   -1.0471   -0.3189 H   0  0  0  0  0  0  0  0  0  0  0  0
    4.4823   -2.8585    1.9223 H   0  0  0  0  0  0  0  0  0  0  0  0
    7.1488   -0.6455    0.4952 H   0  0  0  0  0  0  0  0  0  0  0  0
    8.2053   -2.0410    0.3349 H   0  0  0  0  0  0  0  0  0  0  0  0
    8.2053   -1.0752    1.8325 H   0  0  0  0  0  0  0  0  0  0  0  0
    6.2415   -4.2099    2.7938 H   0  0  0  0  0  0  0  0  0  0  0  0
    7.6636   -3.2593    3.2365 H   0  0  0  0  0  0  0  0  0  0  0  0
    7.6636   -4.2210    1.7451 H   0  0  0  0  0  0  0  0  0  0  0  0
  1  2  1  0  0  0  0
  1 10  1  0  0  0  0
  1 11  1  0  0  0  0
  1 12  1  0  0  0  0
  2  3  2  0  0  0  0
  2  4  1  0  0  0  0
  4  5  1  0  0  0  0
  5  6  1  0  0  0  0
  5 13  1  0  0  0  0
  5 14  1  0  0  0  0
  6  7  2  0  0  0  0
  6 15  1  0  0  0  0
  7  8  1  0  0  0  0
  7  9  1  0  0  0  0
  8 16  1  0  0  0  0
  8 17  1  0  0  0  0
  8 18  1  0  0  0  0
  9 19  1  0  0  0  0
  9 20  1  0  0  0  0
  9 21  1  0  0  0  0
M  END
$$$$
