
 OpenBabel07202215583D

 24 24  0  0  0  0  0  0  0  0999 V2000
    1.0417    0.0663   -0.0974 C   0  0  0  0  0  0  0  0  0  0  0  0
    2.5366    0.0914   -0.0493 C   0  0  0  0  0  0  0  0  0  0  0  0
    3.1792    0.4461    0.9351 O   0  0  0  0  0  0  0  0  0  0  0  0
    3.0740   -0.3303   -1.2328 O   0  0  0  0  0  0  0  0  0  0  0  0
    4.5058   -0.3326   -1.2071 C   0  0  0  0  0  0  0  0  0  0  0  0
    5.1142   -0.8117   -2.5320 C   0  0  0  0  0  0  0  0  0  0  0  0
    6.6332   -0.8365   -2.5284 C   0  0  0  0  0  0  0  0  0  0  0  0
    7.3404   -1.1327   -3.7033 C   0  0  0  0  0  0  0  0  0  0  0  0
    8.7301   -1.3032   -3.6689 C   0  0  0  0  0  0  0  0  0  0  0  0
    9.4372   -1.1024   -2.4841 C   0  0  0  0  0  0  0  0  0  0  0  0
    8.7550   -0.7687   -1.3231 C   0  0  0  0  0  0  0  0  0  0  0  0
    7.3694   -0.6448   -1.3470 C   0  0  0  0  0  0  0  0  0  0  0  0
    0.6478    0.4239    0.8597 H   0  0  0  0  0  0  0  0  0  0  0  0
    0.6872   -0.9550   -0.2543 H   0  0  0  0  0  0  0  0  0  0  0  0
    0.6816    0.7307   -0.8859 H   0  0  0  0  0  0  0  0  0  0  0  0
    4.8264   -1.0040   -0.3998 H   0  0  0  0  0  0  0  0  0  0  0  0
    4.8606    0.6853   -0.9994 H   0  0  0  0  0  0  0  0  0  0  0  0
    4.7488   -0.1807   -3.3518 H   0  0  0  0  0  0  0  0  0  0  0  0
    4.7533   -1.8284   -2.7381 H   0  0  0  0  0  0  0  0  0  0  0  0
    6.8207   -1.2473   -4.6527 H   0  0  0  0  0  0  0  0  0  0  0  0
    9.2654   -1.6093   -4.5642 H   0  0  0  0  0  0  0  0  0  0  0  0
   10.5180   -1.2045   -2.4617 H   0  0  0  0  0  0  0  0  0  0  0  0
    9.2859   -0.6228   -0.3866 H   0  0  0  0  0  0  0  0  0  0  0  0
    6.8861   -0.4009   -0.4057 H   0  0  0  0  0  0  0  0  0  0  0  0
  1  2  1  0  0  0  0
  1 13  1  0  0  0  0
  1 14  1  0  0  0  0
  1 15  1  0  0  0  0
  2  3  2  0  0  0  0
  2  4  1  0  0  0  0
  4  5  1  0  0  0  0
  5  6  1  0  0  0  0
  5 16  1  0  0  0  0
  5 17  1  0  0  0  0
  6  7  1  0  0  0  0
  6 18  1  0  0  0  0
  6 19  1  0  0  0  0
  7  8  2  0  0  0  0
  7 12  1  0  0  0  0
  8  9  1  0  0  0  0
  8 20  1  0  0  0  0
  9 10  2  0  0  0  0
  9 21  1  0  0  0  0
 10 11  1  0  0  0  0
 10 22  1  0  0  0  0
 11 12  2  0  0  0  0
 11 23  1  0  0  0  0
 12 24  1  0  0  0  0
M  END
$$$$
