
 OpenBabel07122215493D

 24 23  0  0  0  0  0  0  0  0999 V2000
    0.9536   -0.0546   -0.0840 C   0  0  0  0  0  0  0  0  0  0  0  0
    2.4707   -0.0691   -0.1316 C   0  0  0  0  0  0  0  0  0  0  0  0
    2.9540   -1.3456   -0.8419 C   0  0  0  0  0  0  0  0  0  0  0  0
    3.0132    1.2130   -0.8071 C   0  0  0  0  0  0  0  0  0  0  0  0
    4.5121    1.2233   -0.6448 C   0  0  0  0  0  0  0  0  0  0  0  0
    5.0137    0.4359    0.1634 O   0  0  0  0  0  0  0  0  0  0  0  0
    5.3410    2.2486   -1.3543 C   0  0  0  0  0  0  0  0  0  0  0  0
    6.8501    2.0887   -1.2823 C   0  0  0  0  0  0  0  0  0  0  0  0
    7.5403    0.9002   -0.6409 C   0  0  0  0  0  0  0  0  0  0  0  0
    7.5584    2.9740   -1.7819 O   0  0  0  0  0  0  0  0  0  0  0  0
    0.5837   -0.9470    0.4318 H   0  0  0  0  0  0  0  0  0  0  0  0
    0.5387   -0.0410   -1.0953 H   0  0  0  0  0  0  0  0  0  0  0  0
    0.5913    0.8243    0.4574 H   0  0  0  0  0  0  0  0  0  0  0  0
    2.8277   -0.1005    0.9089 H   0  0  0  0  0  0  0  0  0  0  0  0
    2.6136   -1.3628   -1.8809 H   0  0  0  0  0  0  0  0  0  0  0  0
    2.5755   -2.2362   -0.3306 H   0  0  0  0  0  0  0  0  0  0  0  0
    4.0445   -1.4451   -0.8597 H   0  0  0  0  0  0  0  0  0  0  0  0
    2.6292    2.1053   -0.2968 H   0  0  0  0  0  0  0  0  0  0  0  0
    2.7246    1.2557   -1.8624 H   0  0  0  0  0  0  0  0  0  0  0  0
    5.0947    3.2183   -0.9023 H   0  0  0  0  0  0  0  0  0  0  0  0
    5.0611    2.2845   -2.4148 H   0  0  0  0  0  0  0  0  0  0  0  0
    6.9209    0.0956   -0.2685 H   0  0  0  0  0  0  0  0  0  0  0  0
    8.1283    1.2551    0.2095 H   0  0  0  0  0  0  0  0  0  0  0  0
    8.1749    0.4168   -1.3850 H   0  0  0  0  0  0  0  0  0  0  0  0
  1  2  1  0  0  0  0
  1 11  1  0  0  0  0
  1 12  1  0  0  0  0
  1 13  1  0  0  0  0
  2  3  1  0  0  0  0
  2  4  1  0  0  0  0
  2 14  1  0  0  0  0
  3 15  1  0  0  0  0
  3 16  1  0  0  0  0
  3 17  1  0  0  0  0
  4  5  1  0  0  0  0
  4 18  1  0  0  0  0
  4 19  1  0  0  0  0
  5  6  2  0  0  0  0
  5  7  1  0  0  0  0
  7  8  1  0  0  0  0
  7 20  1  0  0  0  0
  7 21  1  0  0  0  0
  8  9  1  0  0  0  0
  8 10  2  0  0  0  0
  9 22  1  0  0  0  0
  9 23  1  0  0  0  0
  9 24  1  0  0  0  0
M  END
$$$$
