
 OpenBabel07222214433D

  6  5  0  0  0  0  0  0  0  0999 V2000
    1.0416    0.0534    0.0723 C   0  0  0  0  0  0  0  0  0  0  0  0
    2.8443    0.0803    0.1411 S   0  0  0  0  0  0  0  0  0  0  0  0
    0.6906   -0.9679   -0.0960 H   0  0  0  0  0  0  0  0  0  0  0  0
    0.6906    0.6899   -0.7439 H   0  0  0  0  0  0  0  0  0  0  0  0
    0.6297    0.4218    1.0148 H   0  0  0  0  0  0  0  0  0  0  0  0
    3.0536   -0.4019   -1.0927 H   0  0  0  0  0  0  0  0  0  0  0  0
  1  2  1  0  0  0  0
  1  3  1  0  0  0  0
  1  4  1  0  0  0  0
  1  5  1  0  0  0  0
  2  6  1  0  0  0  0
M  END
$$$$
