
 OpenBabel07122215493D

 10  9  0  0  0  0  0  0  0  0999 V2000
    0.9120   -0.0882    0.0461 S   0  0  0  0  0  0  0  0  0  0  0  0
    2.7263   -0.0905   -0.0058 C   0  0  0  0  0  0  0  0  0  0  0  0
    3.2829   -0.0306    1.3838 C   0  0  0  0  0  0  0  0  0  0  0  0
    4.5975   -0.0192    1.6496 C   0  0  0  0  0  0  0  0  0  0  0  0
    0.7108   -0.1453   -1.2780 H   0  0  0  0  0  0  0  0  0  0  0  0
    3.0578    0.7756   -0.5875 H   0  0  0  0  0  0  0  0  0  0  0  0
    3.0578   -1.0034   -0.5109 H   0  0  0  0  0  0  0  0  0  0  0  0
    2.5917    0.0056    2.2236 H   0  0  0  0  0  0  0  0  0  0  0  0
    5.3410   -0.0532    0.8600 H   0  0  0  0  0  0  0  0  0  0  0  0
    4.9540    0.0250    2.6744 H   0  0  0  0  0  0  0  0  0  0  0  0
  1  2  1  0  0  0  0
  1  5  1  0  0  0  0
  2  3  1  0  0  0  0
  2  6  1  0  0  0  0
  2  7  1  0  0  0  0
  3  4  2  0  0  0  0
  3  8  1  0  0  0  0
  4  9  1  0  0  0  0
  4 10  1  0  0  0  0
M  END
$$$$
