
 OpenBabel07222214443D

 30 30  0  0  0  0  0  0  0  0999 V2000
    1.0735   -0.0065   -0.0771 C   0  0  0  0  0  0  0  0  0  0  0  0
    2.5969    0.0137   -0.0856 C   0  0  0  0  0  0  0  0  0  0  0  0
    3.1221    1.3990    0.1451 C   0  0  0  0  0  0  0  0  0  0  0  0
    4.4348    1.7048    0.1687 C   0  0  0  0  0  0  0  0  0  0  0  0
    4.9264    3.0498    0.4983 C   0  0  0  0  0  0  0  0  0  0  0  0
    6.0526    3.5965   -0.1337 C   0  0  0  0  0  0  0  0  0  0  0  0
    6.5935    4.8262    0.2928 C   0  0  0  0  0  0  0  0  0  0  0  0
    5.9290    5.5676    1.2893 C   0  0  0  0  0  0  0  0  0  0  0  0
    4.8198    5.0121    1.9258 C   0  0  0  0  0  0  0  0  0  0  0  0
    4.3361    3.7631    1.5452 C   0  0  0  0  0  0  0  0  0  0  0  0
    6.3956    6.8179    1.5768 O   0  0  0  0  0  0  0  0  0  0  0  0
    5.7238    7.6076    2.5392 C   0  0  0  0  0  0  0  0  0  0  0  0
    7.7776    5.1690   -0.3254 O   0  0  0  0  0  0  0  0  0  0  0  0
    8.5126    6.2529    0.2451 C   0  0  0  0  0  0  0  0  0  0  0  0
    0.7038   -1.0194   -0.2630 H   0  0  0  0  0  0  0  0  0  0  0  0
    0.6678    0.6520   -0.8528 H   0  0  0  0  0  0  0  0  0  0  0  0
    0.6789    0.3259    0.8898 H   0  0  0  0  0  0  0  0  0  0  0  0
    2.9545   -0.3620   -1.0500 H   0  0  0  0  0  0  0  0  0  0  0  0
    2.9622   -0.6575    0.7010 H   0  0  0  0  0  0  0  0  0  0  0  0
    2.3858    2.1812    0.3124 H   0  0  0  0  0  0  0  0  0  0  0  0
    5.1849    0.9385   -0.0006 H   0  0  0  0  0  0  0  0  0  0  0  0
    6.5240    3.0680   -0.9605 H   0  0  0  0  0  0  0  0  0  0  0  0
    4.3142    5.5196    2.7386 H   0  0  0  0  0  0  0  0  0  0  0  0
    3.4878    3.3503    2.0857 H   0  0  0  0  0  0  0  0  0  0  0  0
    6.2382    8.5722    2.5799 H   0  0  0  0  0  0  0  0  0  0  0  0
    5.7918    7.1483    3.5291 H   0  0  0  0  0  0  0  0  0  0  0  0
    4.6864    7.7926    2.2457 H   0  0  0  0  0  0  0  0  0  0  0  0
    9.5048    6.2956   -0.2113 H   0  0  0  0  0  0  0  0  0  0  0  0
    8.6673    6.1239    1.3248 H   0  0  0  0  0  0  0  0  0  0  0  0
    8.0222    7.2040    0.0118 H   0  0  0  0  0  0  0  0  0  0  0  0
  1  2  1  0  0  0  0
  1 15  1  0  0  0  0
  1 16  1  0  0  0  0
  1 17  1  0  0  0  0
  2  3  1  0  0  0  0
  2 18  1  0  0  0  0
  2 19  1  0  0  0  0
  3  4  2  0  0  0  0
  3 20  1  0  0  0  0
  4  5  1  0  0  0  0
  4 21  1  0  0  0  0
  5  6  2  0  0  0  0
  5 10  1  0  0  0  0
  6  7  1  0  0  0  0
  6 22  1  0  0  0  0
  7  8  2  0  0  0  0
  7 13  1  0  0  0  0
  8  9  1  0  0  0  0
  8 11  1  0  0  0  0
  9 10  2  0  0  0  0
  9 23  1  0  0  0  0
 10 24  1  0  0  0  0
 11 12  1  0  0  0  0
 12 25  1  0  0  0  0
 12 26  1  0  0  0  0
 12 27  1  0  0  0  0
 13 14  1  0  0  0  0
 14 28  1  0  0  0  0
 14 29  1  0  0  0  0
 14 30  1  0  0  0  0
M  END
$$$$
