
 OpenBabel07122215493D

 23 22  0  0  0  0  0  0  0  0999 V2000
    0.9732    0.0608   -0.0885 C   0  0  0  0  0  0  0  0  0  0  0  0
    2.4898    0.0625   -0.0846 C   0  0  0  0  0  0  0  0  0  0  0  0
    3.0173    0.6346    1.2226 C   0  0  0  0  0  0  0  0  0  0  0  0
    4.5409    0.6397    1.2343 C   0  0  0  0  0  0  0  0  0  0  0  0
    5.0357    1.2163    2.5517 C   0  0  0  0  0  0  0  0  0  0  0  0
    6.5530    1.2475    2.6229 C   0  0  0  0  0  0  0  0  0  0  0  0
    7.1271    1.8084    3.9045 C   0  0  0  0  0  0  0  0  0  0  0  0
    6.2556    2.2202    4.8455 O   0  0  0  0  0  0  0  0  0  0  0  0
    8.3365    1.8888    4.0882 O   0  0  0  0  0  0  0  0  0  0  0  0
    0.5976   -0.3507   -1.0288 H   0  0  0  0  0  0  0  0  0  0  0  0
    0.5846    1.0781    0.0236 H   0  0  0  0  0  0  0  0  0  0  0  0
    0.5846   -0.5471    0.7349 H   0  0  0  0  0  0  0  0  0  0  0  0
    2.8594    0.6579   -0.9274 H   0  0  0  0  0  0  0  0  0  0  0  0
    2.8594   -0.9606   -0.2191 H   0  0  0  0  0  0  0  0  0  0  0  0
    2.6431    0.0413    2.0666 H   0  0  0  0  0  0  0  0  0  0  0  0
    2.6431    1.6572    1.3594 H   0  0  0  0  0  0  0  0  0  0  0  0
    4.9192    1.2383    0.3970 H   0  0  0  0  0  0  0  0  0  0  0  0
    4.9192   -0.3814    1.1059 H   0  0  0  0  0  0  0  0  0  0  0  0
    4.6410    0.6118    3.3777 H   0  0  0  0  0  0  0  0  0  0  0  0
    4.6410    2.2333    2.6680 H   0  0  0  0  0  0  0  0  0  0  0  0
    6.9401    1.8544    1.7954 H   0  0  0  0  0  0  0  0  0  0  0  0
    6.9401    0.2278    2.5073 H   0  0  0  0  0  0  0  0  0  0  0  0
    5.3057    2.1353    4.6514 H   0  0  0  0  0  0  0  0  0  0  0  0
  1  2  1  0  0  0  0
  1 10  1  0  0  0  0
  1 11  1  0  0  0  0
  1 12  1  0  0  0  0
  2  3  1  0  0  0  0
  2 13  1  0  0  0  0
  2 14  1  0  0  0  0
  3  4  1  0  0  0  0
  3 15  1  0  0  0  0
  3 16  1  0  0  0  0
  4  5  1  0  0  0  0
  4 17  1  0  0  0  0
  4 18  1  0  0  0  0
  5  6  1  0  0  0  0
  5 19  1  0  0  0  0
  5 20  1  0  0  0  0
  6  7  1  0  0  0  0
  6 21  1  0  0  0  0
  6 22  1  0  0  0  0
  7  8  1  0  0  0  0
  7  9  2  0  0  0  0
  8 23  1  0  0  0  0
M  END
$$$$
