
 OpenBabel07202215583D

 25 24  0  0  0  0  0  0  0  0999 V2000
    0.9167    0.0307   -0.0808 C   0  0  0  0  0  0  0  0  0  0  0  0
    2.4324    0.0300   -0.0815 C   0  0  0  0  0  0  0  0  0  0  0  0
    2.9672    0.9983    0.9604 C   0  0  0  0  0  0  0  0  0  0  0  0
    4.4912    0.9935    0.9553 C   0  0  0  0  0  0  0  0  0  0  0  0
    4.9930    1.9666    2.0024 C   0  0  0  0  0  0  0  0  0  0  0  0
    6.5075    2.0249    2.0651 C   0  0  0  0  0  0  0  0  0  0  0  0
    7.0355    2.9929    3.1069 C   0  0  0  0  0  0  0  0  0  0  0  0
    6.0889    3.7944    3.9693 C   0  0  0  0  0  0  0  0  0  0  0  0
    8.2568    3.1273    3.2515 O   0  0  0  0  0  0  0  0  0  0  0  0
    0.5396   -0.6676   -0.8322 H   0  0  0  0  0  0  0  0  0  0  0  0
    0.5295    1.0286   -0.3101 H   0  0  0  0  0  0  0  0  0  0  0  0
    0.5295   -0.2710    0.8977 H   0  0  0  0  0  0  0  0  0  0  0  0
    2.8010    0.3139   -1.0738 H   0  0  0  0  0  0  0  0  0  0  0  0
    2.8010   -0.9804    0.1290 H   0  0  0  0  0  0  0  0  0  0  0  0
    2.5971    0.7200    1.9558 H   0  0  0  0  0  0  0  0  0  0  0  0
    2.5971    2.0114    0.7557 H   0  0  0  0  0  0  0  0  0  0  0  0
    4.8653    1.2835   -0.0332 H   0  0  0  0  0  0  0  0  0  0  0  0
    4.8653   -0.0135    1.1721 H   0  0  0  0  0  0  0  0  0  0  0  0
    4.5974    1.6646    2.9804 H   0  0  0  0  0  0  0  0  0  0  0  0
    4.5974    2.9641    1.7728 H   0  0  0  0  0  0  0  0  0  0  0  0
    6.9059    2.3310    1.0904 H   0  0  0  0  0  0  0  0  0  0  0  0
    6.9059    1.0303    2.2990 H   0  0  0  0  0  0  0  0  0  0  0  0
    5.0356    3.6063    3.7669 H   0  0  0  0  0  0  0  0  0  0  0  0
    6.2628    4.8580    3.7929 H   0  0  0  0  0  0  0  0  0  0  0  0
    6.2628    3.5406    5.0171 H   0  0  0  0  0  0  0  0  0  0  0  0
  1  2  1  0  0  0  0
  1 10  1  0  0  0  0
  1 11  1  0  0  0  0
  1 12  1  0  0  0  0
  2  3  1  0  0  0  0
  2 13  1  0  0  0  0
  2 14  1  0  0  0  0
  3  4  1  0  0  0  0
  3 15  1  0  0  0  0
  3 16  1  0  0  0  0
  4  5  1  0  0  0  0
  4 17  1  0  0  0  0
  4 18  1  0  0  0  0
  5  6  1  0  0  0  0
  5 19  1  0  0  0  0
  5 20  1  0  0  0  0
  6  7  1  0  0  0  0
  6 21  1  0  0  0  0
  6 22  1  0  0  0  0
  7  8  1  0  0  0  0
  7  9  2  0  0  0  0
  8 23  1  0  0  0  0
  8 24  1  0  0  0  0
  8 25  1  0  0  0  0
M  END
$$$$
