
 OpenBabel07202215583D

 37 37  0  0  0  0  0  0  0  0999 V2000
    1.0450    0.0702    0.0304 C   0  0  0  0  0  0  0  0  0  0  0  0
    2.5706    0.0871    0.0110 C   0  0  0  0  0  0  0  0  0  0  0  0
    3.0676    1.1053   -1.0201 C   0  0  0  0  0  0  0  0  0  0  0  0
    3.0357    0.4628    1.3077 O   0  0  0  0  0  0  0  0  0  0  0  0
    3.0943   -1.3231   -0.2941 C   0  0  0  0  0  0  0  0  0  0  0  0
    4.6167   -1.3698   -0.2935 C   0  0  0  0  0  0  0  0  0  0  0  0
    5.1273   -2.7563   -0.6415 C   0  0  0  0  0  0  0  0  0  0  0  0
    6.6317   -2.7729   -0.6403 C   0  0  0  0  0  0  0  0  0  0  0  0
    7.2997   -3.6477    0.1297 C   0  0  0  0  0  0  0  0  0  0  0  0
    8.7936   -3.6921    0.2128 C   0  0  0  0  0  0  0  0  0  0  0  0
    9.4608   -2.4322   -0.3510 C   0  0  0  0  0  0  0  0  0  0  0  0
    8.8281   -2.0320   -1.6843 C   0  0  0  0  0  0  0  0  0  0  0  0
    7.3339   -1.7581   -1.5201 C   0  0  0  0  0  0  0  0  0  0  0  0
    9.3456   -1.2814    0.6329 C   0  0  0  0  0  0  0  0  0  0  0  0
    9.7974   -0.1582    0.4084 O   0  0  0  0  0  0  0  0  0  0  0  0
    0.6508    1.0600    0.2825 H   0  0  0  0  0  0  0  0  0  0  0  0
    0.6715   -0.6226    0.7924 H   0  0  0  0  0  0  0  0  0  0  0  0
    0.6418   -0.2296   -0.9424 H   0  0  0  0  0  0  0  0  0  0  0  0
    2.6883    2.1069   -0.7983 H   0  0  0  0  0  0  0  0  0  0  0  0
    2.7539    0.8221   -2.0305 H   0  0  0  0  0  0  0  0  0  0  0  0
    4.1579    1.2029   -1.0111 H   0  0  0  0  0  0  0  0  0  0  0  0
    2.7265    1.3650    1.4939 H   0  0  0  0  0  0  0  0  0  0  0  0
    2.7190   -1.6597   -1.2688 H   0  0  0  0  0  0  0  0  0  0  0  0
    2.7261   -2.0316    0.4594 H   0  0  0  0  0  0  0  0  0  0  0  0
    5.0105   -1.0534    0.6808 H   0  0  0  0  0  0  0  0  0  0  0  0
    4.9957   -0.6675   -1.0402 H   0  0  0  0  0  0  0  0  0  0  0  0
    4.7656   -3.0565   -1.6315 H   0  0  0  0  0  0  0  0  0  0  0  0
    4.7251   -3.4775    0.0804 H   0  0  0  0  0  0  0  0  0  0  0  0
    6.7508   -4.3601    0.7429 H   0  0  0  0  0  0  0  0  0  0  0  0
    9.1290   -4.5736   -0.3465 H   0  0  0  0  0  0  0  0  0  0  0  0
    9.0847   -3.8409    1.2588 H   0  0  0  0  0  0  0  0  0  0  0  0
   10.5297   -2.6321   -0.4845 H   0  0  0  0  0  0  0  0  0  0  0  0
    8.9698   -2.8351   -2.4180 H   0  0  0  0  0  0  0  0  0  0  0  0
    9.3150   -1.1382   -2.0933 H   0  0  0  0  0  0  0  0  0  0  0  0
    6.8640   -1.7219   -2.5098 H   0  0  0  0  0  0  0  0  0  0  0  0
    7.2142   -0.7603   -1.0765 H   0  0  0  0  0  0  0  0  0  0  0  0
    8.8033   -1.4833    1.5718 H   0  0  0  0  0  0  0  0  0  0  0  0
  1  2  1  0  0  0  0
  1 16  1  0  0  0  0
  1 17  1  0  0  0  0
  1 18  1  0  0  0  0
  2  3  1  0  0  0  0
  2  4  1  0  0  0  0
  2  5  1  0  0  0  0
  3 19  1  0  0  0  0
  3 20  1  0  0  0  0
  3 21  1  0  0  0  0
  4 22  1  0  0  0  0
  5  6  1  0  0  0  0
  5 23  1  0  0  0  0
  5 24  1  0  0  0  0
  6  7  1  0  0  0  0
  6 25  1  0  0  0  0
  6 26  1  0  0  0  0
  7  8  1  0  0  0  0
  7 27  1  0  0  0  0
  7 28  1  0  0  0  0
  8  9  2  0  0  0  0
  8 13  1  0  0  0  0
  9 10  1  0  0  0  0
  9 29  1  0  0  0  0
 10 11  1  0  0  0  0
 10 30  1  0  0  0  0
 10 31  1  0  0  0  0
 11 12  1  0  0  0  0
 11 14  1  0  0  0  0
 11 32  1  0  0  0  0
 12 13  1  0  0  0  0
 12 33  1  0  0  0  0
 12 34  1  0  0  0  0
 13 35  1  0  0  0  0
 13 36  1  0  0  0  0
 14 15  2  0  0  0  0
 14 37  1  0  0  0  0
M  END
$$$$
