
 OpenBabel07222214433D

 24 25  0  0  0  0  0  0  0  0999 V2000
    1.0370    0.1158    0.0250 O   0  0  0  0  0  0  0  0  0  0  0  0
    2.2647    0.0836    0.0571 C   0  0  0  0  0  0  0  0  0  0  0  0
    3.0172    0.8273    1.0985 C   0  0  0  0  0  0  0  0  0  0  0  0
    4.2232    1.4761    0.7998 C   0  0  0  0  0  0  0  0  0  0  0  0
    5.0197    1.9624    1.8375 C   0  0  0  0  0  0  0  0  0  0  0  0
    4.5740    1.8773    3.1570 C   0  0  0  0  0  0  0  0  0  0  0  0
    3.3400    1.2916    3.4446 C   0  0  0  0  0  0  0  0  0  0  0  0
    2.5581    0.7672    2.4157 C   0  0  0  0  0  0  0  0  0  0  0  0
    3.0165   -0.7601   -0.9035 C   0  0  0  0  0  0  0  0  0  0  0  0
    4.0824   -1.5533   -0.4577 C   0  0  0  0  0  0  0  0  0  0  0  0
    4.8458   -2.2715   -1.3763 C   0  0  0  0  0  0  0  0  0  0  0  0
    4.4966   -2.2629   -2.7259 C   0  0  0  0  0  0  0  0  0  0  0  0
    3.4089   -1.5048   -3.1653 C   0  0  0  0  0  0  0  0  0  0  0  0
    2.6668   -0.7486   -2.2554 C   0  0  0  0  0  0  0  0  0  0  0  0
    4.5587    1.5898   -0.2284 H   0  0  0  0  0  0  0  0  0  0  0  0
    5.9968    2.3886    1.6221 H   0  0  0  0  0  0  0  0  0  0  0  0
    5.1884    2.2709    3.9635 H   0  0  0  0  0  0  0  0  0  0  0  0
    2.9995    1.2166    4.4741 H   0  0  0  0  0  0  0  0  0  0  0  0
    1.6117    0.2813    2.6406 H   0  0  0  0  0  0  0  0  0  0  0  0
    4.3198   -1.6230    0.6013 H   0  0  0  0  0  0  0  0  0  0  0  0
    5.7115   -2.8363   -1.0399 H   0  0  0  0  0  0  0  0  0  0  0  0
    5.0678   -2.8574   -3.4352 H   0  0  0  0  0  0  0  0  0  0  0  0
    3.1461   -1.4970   -4.2203 H   0  0  0  0  0  0  0  0  0  0  0  0
    1.8274   -0.1491   -2.5996 H   0  0  0  0  0  0  0  0  0  0  0  0
  1  2  2  0  0  0  0
  2  3  1  0  0  0  0
  2  9  1  0  0  0  0
  3  4  1  0  0  0  0
  3  8  2  0  0  0  0
  4  5  2  0  0  0  0
  4 15  1  0  0  0  0
  5  6  1  0  0  0  0
  5 16  1  0  0  0  0
  6  7  2  0  0  0  0
  6 17  1  0  0  0  0
  7  8  1  0  0  0  0
  7 18  1  0  0  0  0
  8 19  1  0  0  0  0
  9 10  1  0  0  0  0
  9 14  2  0  0  0  0
 10 11  2  0  0  0  0
 10 20  1  0  0  0  0
 11 12  1  0  0  0  0
 11 21  1  0  0  0  0
 12 13  2  0  0  0  0
 12 22  1  0  0  0  0
 13 14  1  0  0  0  0
 13 23  1  0  0  0  0
 14 24  1  0  0  0  0
M  END
$$$$
