
 OpenBabel07202215583D

 20 19  0  0  0  0  0  0  0  0999 V2000
    1.0308   -0.0877    0.0149 C   0  0  0  0  0  0  0  0  0  0  0  0
    2.5462   -0.0816    0.0254 C   0  0  0  0  0  0  0  0  0  0  0  0
    3.0728    0.6375    1.2634 C   0  0  0  0  0  0  0  0  0  0  0  0
    4.5941    0.6326    1.2550 C   0  0  0  0  0  0  0  0  0  0  0  0
    5.1729    1.3388    2.4708 C   0  0  0  0  0  0  0  0  0  0  0  0
    6.6836    1.3773    2.5370 C   0  0  0  0  0  0  0  0  0  0  0  0
    7.3624    0.7929    1.5310 O   0  0  0  0  0  0  0  0  0  0  0  0
    7.2751    1.9166    3.4655 O   0  0  0  0  0  0  0  0  0  0  0  0
    0.6598   -0.6042   -0.8744 H   0  0  0  0  0  0  0  0  0  0  0  0
    0.6412    0.9351    0.0087 H   0  0  0  0  0  0  0  0  0  0  0  0
    0.6412   -0.5997    0.9002 H   0  0  0  0  0  0  0  0  0  0  0  0
    2.9176    0.4127   -0.8804 H   0  0  0  0  0  0  0  0  0  0  0  0
    2.9176   -1.1133    0.0059 H   0  0  0  0  0  0  0  0  0  0  0  0
    2.7029    0.1417    2.1690 H   0  0  0  0  0  0  0  0  0  0  0  0
    2.7029    1.6698    1.2815 H   0  0  0  0  0  0  0  0  0  0  0  0
    4.9483    1.1256    0.3413 H   0  0  0  0  0  0  0  0  0  0  0  0
    4.9483   -0.4052    1.2305 H   0  0  0  0  0  0  0  0  0  0  0  0
    4.8168    0.8409    3.3809 H   0  0  0  0  0  0  0  0  0  0  0  0
    4.8168    2.3761    2.4893 H   0  0  0  0  0  0  0  0  0  0  0  0
    6.8463    0.3785    0.8175 H   0  0  0  0  0  0  0  0  0  0  0  0
  1  2  1  0  0  0  0
  1  9  1  0  0  0  0
  1 10  1  0  0  0  0
  1 11  1  0  0  0  0
  2  3  1  0  0  0  0
  2 12  1  0  0  0  0
  2 13  1  0  0  0  0
  3  4  1  0  0  0  0
  3 14  1  0  0  0  0
  3 15  1  0  0  0  0
  4  5  1  0  0  0  0
  4 16  1  0  0  0  0
  4 17  1  0  0  0  0
  5  6  1  0  0  0  0
  5 18  1  0  0  0  0
  5 19  1  0  0  0  0
  6  7  1  0  0  0  0
  6  8  2  0  0  0  0
  7 20  1  0  0  0  0
M  END
$$$$
