
 OpenBabel07222214443D

 44 43  0  0  0  0  0  0  0  0999 V2000
    0.9482    0.0695   -0.0387 C   0  0  0  0  0  0  0  0  0  0  0  0
    2.4656    0.0762   -0.0458 C   0  0  0  0  0  0  0  0  0  0  0  0
    2.9904    1.0595   -1.0857 C   0  0  0  0  0  0  0  0  0  0  0  0
    4.5135    1.0738   -1.1009 C   0  0  0  0  0  0  0  0  0  0  0  0
    5.0322    2.0610   -2.1450 C   0  0  0  0  0  0  0  0  0  0  0  0
    6.5559    2.0708   -2.1553 C   0  0  0  0  0  0  0  0  0  0  0  0
    7.1302    3.0457   -3.1864 C   0  0  0  0  0  0  0  0  0  0  0  0
    8.6441    3.0085   -3.1471 C   0  0  0  0  0  0  0  0  0  0  0  0
    9.2989    2.2962   -2.3937 O   0  0  0  0  0  0  0  0  0  0  0  0
    9.1894    3.8686   -4.0567 O   0  0  0  0  0  0  0  0  0  0  0  0
   10.6287    3.8596   -4.0472 C   0  0  0  0  0  0  0  0  0  0  0  0
   11.1623    4.8416   -5.0858 C   0  0  0  0  0  0  0  0  0  0  0  0
   12.6919    4.8567   -5.1018 C   0  0  0  0  0  0  0  0  0  0  0  0
   13.2232    5.8401   -6.1418 C   0  0  0  0  0  0  0  0  0  0  0  0
   14.7499    5.8553   -6.1579 C   0  0  0  0  0  0  0  0  0  0  0  0
   15.2675    6.8362   -7.1953 C   0  0  0  0  0  0  0  0  0  0  0  0
    0.5744   -0.6364    0.7078 H   0  0  0  0  0  0  0  0  0  0  0  0
    0.5578   -0.2254   -1.0181 H   0  0  0  0  0  0  0  0  0  0  0  0
    0.5578    1.0638    0.2008 H   0  0  0  0  0  0  0  0  0  0  0  0
    2.8353   -0.9325   -0.2641 H   0  0  0  0  0  0  0  0  0  0  0  0
    2.8353    0.3506    0.9491 H   0  0  0  0  0  0  0  0  0  0  0  0
    2.6148    2.0663   -0.8658 H   0  0  0  0  0  0  0  0  0  0  0  0
    2.6148    0.7835   -2.0787 H   0  0  0  0  0  0  0  0  0  0  0  0
    4.8899    0.0668   -1.3204 H   0  0  0  0  0  0  0  0  0  0  0  0
    4.8899    1.3492   -0.1078 H   0  0  0  0  0  0  0  0  0  0  0  0
    4.6537    3.0654   -1.9211 H   0  0  0  0  0  0  0  0  0  0  0  0
    4.6537    1.7813   -3.1353 H   0  0  0  0  0  0  0  0  0  0  0  0
    6.9224    1.0574   -2.3645 H   0  0  0  0  0  0  0  0  0  0  0  0
    6.9224    2.3363   -1.1553 H   0  0  0  0  0  0  0  0  0  0  0  0
    6.7887    4.0623   -2.9623 H   0  0  0  0  0  0  0  0  0  0  0  0
    6.7887    2.7651   -4.1888 H   0  0  0  0  0  0  0  0  0  0  0  0
   10.9872    2.8499   -4.2817 H   0  0  0  0  0  0  0  0  0  0  0  0
   10.9872    4.1503   -3.0522 H   0  0  0  0  0  0  0  0  0  0  0  0
   10.7785    5.8467   -4.8728 H   0  0  0  0  0  0  0  0  0  0  0  0
   10.7785    4.5728   -6.0774 H   0  0  0  0  0  0  0  0  0  0  0  0
   13.0716    3.8514   -5.3227 H   0  0  0  0  0  0  0  0  0  0  0  0
   13.0716    5.1336   -4.1104 H   0  0  0  0  0  0  0  0  0  0  0  0
   12.8484    6.8474   -5.9225 H   0  0  0  0  0  0  0  0  0  0  0  0
   12.8484    5.5647   -7.1353 H   0  0  0  0  0  0  0  0  0  0  0  0
   15.1324    4.8527   -6.3824 H   0  0  0  0  0  0  0  0  0  0  0  0
   15.1324    6.1356   -5.1694 H   0  0  0  0  0  0  0  0  0  0  0  0
   14.9197    6.5619   -8.1964 H   0  0  0  0  0  0  0  0  0  0  0  0
   16.3613    6.8426   -7.2021 H   0  0  0  0  0  0  0  0  0  0  0  0
   14.9198    7.8511   -6.9774 H   0  0  0  0  0  0  0  0  0  0  0  0
  1  2  1  0  0  0  0
  1 17  1  0  0  0  0
  1 18  1  0  0  0  0
  1 19  1  0  0  0  0
  2  3  1  0  0  0  0
  2 20  1  0  0  0  0
  2 21  1  0  0  0  0
  3  4  1  0  0  0  0
  3 22  1  0  0  0  0
  3 23  1  0  0  0  0
  4  5  1  0  0  0  0
  4 24  1  0  0  0  0
  4 25  1  0  0  0  0
  5  6  1  0  0  0  0
  5 26  1  0  0  0  0
  5 27  1  0  0  0  0
  6  7  1  0  0  0  0
  6 28  1  0  0  0  0
  6 29  1  0  0  0  0
  7  8  1  0  0  0  0
  7 30  1  0  0  0  0
  7 31  1  0  0  0  0
  8  9  2  0  0  0  0
  8 10  1  0  0  0  0
 10 11  1  0  0  0  0
 11 12  1  0  0  0  0
 11 32  1  0  0  0  0
 11 33  1  0  0  0  0
 12 13  1  0  0  0  0
 12 34  1  0  0  0  0
 12 35  1  0  0  0  0
 13 14  1  0  0  0  0
 13 36  1  0  0  0  0
 13 37  1  0  0  0  0
 14 15  1  0  0  0  0
 14 38  1  0  0  0  0
 14 39  1  0  0  0  0
 15 16  1  0  0  0  0
 15 40  1  0  0  0  0
 15 41  1  0  0  0  0
 16 42  1  0  0  0  0
 16 43  1  0  0  0  0
 16 44  1  0  0  0  0
M  END
$$$$
