
 OpenBabel07222214433D

 20 20  0  0  0  0  0  0  0  0999 V2000
    1.4097   -0.1990    0.0155 C   0  0  0  0  0  0  0  0  0  0  0  0
    0.8822    1.0914    0.0063 C   0  0  0  0  0  0  0  0  0  0  0  0
   -0.5015    1.2883    0.0213 C   0  0  0  0  0  0  0  0  0  0  0  0
   -1.3732    0.1923   -0.0313 C   0  0  0  0  0  0  0  0  0  0  0  0
   -0.8205   -1.0988   -0.0038 C   0  0  0  0  0  0  0  0  0  0  0  0
    0.5570   -1.2948    0.0228 C   0  0  0  0  0  0  0  0  0  0  0  0
   -2.8618    0.4319   -0.1777 C   0  0  0  0  0  0  0  0  0  0  0  0
   -3.6700   -0.8564   -0.3115 C   0  0  0  0  0  0  0  0  0  0  0  0
   -5.1351   -0.6161   -0.4931 C   0  0  0  0  0  0  0  0  0  0  0  0
   -5.9381   -1.5440   -0.6062 O   0  0  0  0  0  0  0  0  0  0  0  0
    2.4843   -0.3541    0.0211 H   0  0  0  0  0  0  0  0  0  0  0  0
    1.5522    1.9462   -0.0264 H   0  0  0  0  0  0  0  0  0  0  0  0
   -0.8907    2.3039    0.0565 H   0  0  0  0  0  0  0  0  0  0  0  0
   -1.4443   -1.9882   -0.0169 H   0  0  0  0  0  0  0  0  0  0  0  0
    0.9531   -2.3065    0.0293 H   0  0  0  0  0  0  0  0  0  0  0  0
   -3.0217    1.0449   -1.0759 H   0  0  0  0  0  0  0  0  0  0  0  0
   -3.2258    1.0172    0.6762 H   0  0  0  0  0  0  0  0  0  0  0  0
   -3.5494   -1.4687    0.5893 H   0  0  0  0  0  0  0  0  0  0  0  0
   -3.3262   -1.4247   -1.1846 H   0  0  0  0  0  0  0  0  0  0  0  0
   -5.4740    0.4293   -0.5277 H   0  0  0  0  0  0  0  0  0  0  0  0
  1  2  2  0  0  0  0
  1  6  1  0  0  0  0
  1 11  1  0  0  0  0
  2  3  1  0  0  0  0
  2 12  1  0  0  0  0
  3  4  2  0  0  0  0
  3 13  1  0  0  0  0
  4  5  1  0  0  0  0
  4  7  1  0  0  0  0
  5  6  2  0  0  0  0
  5 14  1  0  0  0  0
  6 15  1  0  0  0  0
  7  8  1  0  0  0  0
  7 16  1  0  0  0  0
  7 17  1  0  0  0  0
  8  9  1  0  0  0  0
  8 18  1  0  0  0  0
  8 19  1  0  0  0  0
  9 10  2  0  0  0  0
  9 20  1  0  0  0  0
M  END
$$$$
