
 OpenBabel07222214433D

 27 26  0  0  1  0  0  0  0  0999 V2000
    4.1623   -3.0357    1.6958 C   0  0  0  0  0  0  0  0  0  0  0  0
    3.7958   -2.2135    0.4974 C   0  0  0  0  0  0  0  0  0  0  0  0
    4.9265   -1.4411   -0.1843 C   0  0  0  0  0  0  0  0  0  0  0  0
    4.4064   -0.4365   -1.2487 C   0  0  2  0  0  0  0  0  0  0  0  0
    2.8768   -0.2239   -1.2816 C   0  0  0  0  0  0  0  0  0  0  0  0
    2.3489    0.2681    0.0574 C   0  0  0  0  0  0  0  0  0  0  0  0
    3.0482    0.8309    0.9021 O   0  0  0  0  0  0  0  0  0  0  0  0
    1.0645   -0.1453    0.2797 O   0  0  0  0  0  0  0  0  0  0  0  0
    0.6130   -0.0087    1.6454 C   0  0  0  0  0  0  0  0  0  0  0  0
   -0.9041   -0.0419    1.6882 C   0  0  0  0  0  0  0  0  0  0  0  0
    4.8469   -0.8711   -2.5446 O   0  0  0  0  0  0  0  0  0  0  0  0
    3.2249   -3.3568    2.1683 H   0  0  0  0  0  0  0  0  0  0  0  0
    4.6995   -2.4206    2.4235 H   0  0  0  0  0  0  0  0  0  0  0  0
    4.7439   -3.9088    1.4134 H   0  0  0  0  0  0  0  0  0  0  0  0
    3.0919   -1.5345    0.9528 H   0  0  0  0  0  0  0  0  0  0  0  0
    3.2426   -2.8023   -0.2407 H   0  0  0  0  0  0  0  0  0  0  0  0
    5.6324   -2.1536   -0.6314 H   0  0  0  0  0  0  0  0  0  0  0  0
    5.5028   -0.8808    0.5648 H   0  0  0  0  0  0  0  0  0  0  0  0
    4.8966    0.5321   -1.0885 H   0  0  0  0  0  0  0  0  0  0  0  0
    2.6017    0.4984   -2.0538 H   0  0  0  0  0  0  0  0  0  0  0  0
    2.4049   -1.1747   -1.5649 H   0  0  0  0  0  0  0  0  0  0  0  0
    0.9609    0.9328    2.0834 H   0  0  0  0  0  0  0  0  0  0  0  0
    1.0069   -0.8441    2.2389 H   0  0  0  0  0  0  0  0  0  0  0  0
   -1.3196    0.7570    1.0671 H   0  0  0  0  0  0  0  0  0  0  0  0
   -1.2696    0.0856    2.7131 H   0  0  0  0  0  0  0  0  0  0  0  0
   -1.2879   -0.9904    1.2994 H   0  0  0  0  0  0  0  0  0  0  0  0
    4.6222   -1.8115   -2.6498 H   0  0  0  0  0  0  0  0  0  0  0  0
  1  2  1  0  0  0  0
  1 12  1  0  0  0  0
  1 13  1  0  0  0  0
  1 14  1  0  0  0  0
  2  3  1  0  0  0  0
  2 15  1  0  0  0  0
  2 16  1  0  0  0  0
  3 17  1  0  0  0  0
  3 18  1  0  0  0  0
  4 11  1  0  0  0  0
  4  5  1  0  0  0  0
  4  3  1  0  0  0  0
  4 19  1  1  0  0  0
  5  6  1  0  0  0  0
  5 20  1  0  0  0  0
  5 21  1  0  0  0  0
  6  7  2  0  0  0  0
  6  8  1  0  0  0  0
  8  9  1  0  0  0  0
  9 10  1  0  0  0  0
  9 22  1  0  0  0  0
  9 23  1  0  0  0  0
 10 24  1  0  0  0  0
 10 25  1  0  0  0  0
 10 26  1  0  0  0  0
 11 27  1  0  0  0  0
M  END
$$$$
