
 OpenBabel07202215583D

 18 18  0  0  0  0  0  0  0  0999 V2000
    1.1242   -0.1081    0.0726 C   0  0  0  0  0  0  0  0  0  0  0  0
    2.6164    0.0018   -0.0364 C   0  0  0  0  0  0  0  0  0  0  0  0
    3.1697    0.9638   -0.5640 O   0  0  0  0  0  0  0  0  0  0  0  0
    3.2452   -1.1079    0.5260 O   0  0  0  0  0  0  0  0  0  0  0  0
    4.6553   -1.0886    0.6274 C   0  0  0  0  0  0  0  0  0  0  0  0
    5.3470   -2.2815    0.4055 C   0  0  0  0  0  0  0  0  0  0  0  0
    6.7352   -2.3183    0.5852 C   0  0  0  0  0  0  0  0  0  0  0  0
    7.4317   -1.1566    0.9243 C   0  0  0  0  0  0  0  0  0  0  0  0
    6.7363    0.0298    1.1455 C   0  0  0  0  0  0  0  0  0  0  0  0
    5.3470    0.0570    1.0272 C   0  0  0  0  0  0  0  0  0  0  0  0
    0.6839    0.7725   -0.4097 H   0  0  0  0  0  0  0  0  0  0  0  0
    0.8045   -0.1096    1.1177 H   0  0  0  0  0  0  0  0  0  0  0  0
    0.7626   -0.9944   -0.4522 H   0  0  0  0  0  0  0  0  0  0  0  0
    4.8240   -3.1797    0.0906 H   0  0  0  0  0  0  0  0  0  0  0  0
    7.2805   -3.2513    0.4639 H   0  0  0  0  0  0  0  0  0  0  0  0
    8.5150   -1.1737    1.0178 H   0  0  0  0  0  0  0  0  0  0  0  0
    7.2706    0.9361    1.4175 H   0  0  0  0  0  0  0  0  0  0  0  0
    4.8229    0.9855    1.2305 H   0  0  0  0  0  0  0  0  0  0  0  0
  1  2  1  0  0  0  0
  1 11  1  0  0  0  0
  1 12  1  0  0  0  0
  1 13  1  0  0  0  0
  2  3  2  0  0  0  0
  2  4  1  0  0  0  0
  4  5  1  0  0  0  0
  5  6  2  0  0  0  0
  5 10  1  0  0  0  0
  6  7  1  0  0  0  0
  6 14  1  0  0  0  0
  7  8  2  0  0  0  0
  7 15  1  0  0  0  0
  8  9  1  0  0  0  0
  8 16  1  0  0  0  0
  9 10  2  0  0  0  0
  9 17  1  0  0  0  0
 10 18  1  0  0  0  0
M  END
$$$$
