
 OpenBabel07202215583D

 24 24  0  0  1  0  0  0  0  0999 V2000
    1.0525    0.0626   -0.0160 C   0  0  0  0  0  0  0  0  0  0  0  0
    2.5749    0.0948   -0.0021 C   0  0  0  0  0  0  0  0  0  0  0  0
    3.1457    0.9270    1.1700 C   0  0  1  0  0  0  0  0  0  0  0  0
    2.6849    0.4004    2.5190 C   0  0  0  0  0  0  0  0  0  0  0  0
    2.3124    1.2734    3.5491 C   0  0  0  0  0  0  0  0  0  0  0  0
    2.1048    0.7735    4.8351 C   0  0  0  0  0  0  0  0  0  0  0  0
    2.1551   -0.6007    5.0749 C   0  0  0  0  0  0  0  0  0  0  0  0
    2.4363   -1.4808    4.0382 C   0  0  0  0  0  0  0  0  0  0  0  0
    2.7157   -0.9808    2.7751 C   0  0  0  0  0  0  0  0  0  0  0  0
    4.6792    0.9276    1.1057 C   0  0  0  0  0  0  0  0  0  0  0  0
    5.3374    0.3078    0.2740 O   0  0  0  0  0  0  0  0  0  0  0  0
    5.2906    1.6930    2.0412 O   0  0  0  0  0  0  0  0  0  0  0  0
    0.6969   -0.5725   -0.8321 H   0  0  0  0  0  0  0  0  0  0  0  0
    0.6495    1.0697   -0.1523 H   0  0  0  0  0  0  0  0  0  0  0  0
    0.6404   -0.3452    0.9126 H   0  0  0  0  0  0  0  0  0  0  0  0
    2.9361    0.4998   -0.9551 H   0  0  0  0  0  0  0  0  0  0  0  0
    2.9535   -0.9346    0.0291 H   0  0  0  0  0  0  0  0  0  0  0  0
    2.8138    1.9657    1.0295 H   0  0  0  0  0  0  0  0  0  0  0  0
    2.2002    2.3414    3.3714 H   0  0  0  0  0  0  0  0  0  0  0  0
    1.9192    1.4549    5.6612 H   0  0  0  0  0  0  0  0  0  0  0  0
    1.9741   -0.9905    6.0720 H   0  0  0  0  0  0  0  0  0  0  0  0
    2.4745   -2.5531    4.2071 H   0  0  0  0  0  0  0  0  0  0  0  0
    2.9661   -1.6917    1.9912 H   0  0  0  0  0  0  0  0  0  0  0  0
    4.6924    2.0911    2.7014 H   0  0  0  0  0  0  0  0  0  0  0  0
  1  2  1  0  0  0  0
  1 13  1  0  0  0  0
  1 14  1  0  0  0  0
  1 15  1  0  0  0  0
  2  3  1  0  0  0  0
  2 16  1  0  0  0  0
  2 17  1  0  0  0  0
  3  4  1  0  0  0  0
  3 10  1  0  0  0  0
  3 18  1  6  0  0  0
  4  5  2  0  0  0  0
  4  9  1  0  0  0  0
  5  6  1  0  0  0  0
  5 19  1  0  0  0  0
  6  7  2  0  0  0  0
  6 20  1  0  0  0  0
  7  8  1  0  0  0  0
  7 21  1  0  0  0  0
  8  9  2  0  0  0  0
  8 22  1  0  0  0  0
  9 23  1  0  0  0  0
 10 11  2  0  0  0  0
 10 12  1  0  0  0  0
 12 24  1  0  0  0  0
M  END
$$$$
