
 OpenBabel07122215493D

 20 19  0  0  0  0  0  0  0  0999 V2000
    0.9134    0.0021    0.0835 C   0  0  0  0  0  0  0  0  0  0  0  0
    2.4422   -0.0164    0.0662 C   0  0  0  0  0  0  0  0  0  0  0  0
    2.9338   -1.3690   -0.4477 C   0  0  0  0  0  0  0  0  0  0  0  0
    2.9500    1.1370   -0.8087 C   0  0  0  0  0  0  0  0  0  0  0  0
    4.4711    1.2299   -0.8631 C   0  0  0  0  0  0  0  0  0  0  0  0
    5.0366    2.3371   -1.7196 C   0  0  0  0  0  0  0  0  0  0  0  0
    4.1598    3.1359   -2.3548 O   0  0  0  0  0  0  0  0  0  0  0  0
    6.2460    2.4965   -1.8471 O   0  0  0  0  0  0  0  0  0  0  0  0
    0.5219   -0.7996    0.7170 H   0  0  0  0  0  0  0  0  0  0  0  0
    0.5095   -0.1338   -0.9261 H   0  0  0  0  0  0  0  0  0  0  0  0
    0.5375    0.9551    0.4708 H   0  0  0  0  0  0  0  0  0  0  0  0
    2.8041    0.1269    1.0923 H   0  0  0  0  0  0  0  0  0  0  0  0
    2.6080   -1.5326   -1.4808 H   0  0  0  0  0  0  0  0  0  0  0  0
    2.5481   -2.1848    0.1698 H   0  0  0  0  0  0  0  0  0  0  0  0
    4.0249   -1.4386   -0.4222 H   0  0  0  0  0  0  0  0  0  0  0  0
    2.5474    2.0814   -0.4194 H   0  0  0  0  0  0  0  0  0  0  0  0
    2.5559    1.0146   -1.8257 H   0  0  0  0  0  0  0  0  0  0  0  0
    4.8859    0.3024   -1.2715 H   0  0  0  0  0  0  0  0  0  0  0  0
    4.8592    1.3597    0.1543 H   0  0  0  0  0  0  0  0  0  0  0  0
    3.2128    2.9555   -2.2221 H   0  0  0  0  0  0  0  0  0  0  0  0
  1  2  1  0  0  0  0
  1  9  1  0  0  0  0
  1 10  1  0  0  0  0
  1 11  1  0  0  0  0
  2  3  1  0  0  0  0
  2  4  1  0  0  0  0
  2 12  1  0  0  0  0
  3 13  1  0  0  0  0
  3 14  1  0  0  0  0
  3 15  1  0  0  0  0
  4  5  1  0  0  0  0
  4 16  1  0  0  0  0
  4 17  1  0  0  0  0
  5  6  1  0  0  0  0
  5 18  1  0  0  0  0
  5 19  1  0  0  0  0
  6  7  1  0  0  0  0
  6  8  2  0  0  0  0
  7 20  1  0  0  0  0
M  END
$$$$
