
 OpenBabel07202215583D

 29 28  0  0  0  0  0  0  0  0999 V2000
    0.8992    0.0489    0.0239 C   0  0  0  0  0  0  0  0  0  0  0  0
    2.4158    0.0446    0.0313 C   0  0  0  0  0  0  0  0  0  0  0  0
    2.9409   -0.6716    1.2689 C   0  0  0  0  0  0  0  0  0  0  0  0
    4.4627   -0.6781    1.2802 C   0  0  0  0  0  0  0  0  0  0  0  0
    4.9834   -1.3949    2.5190 C   0  0  0  0  0  0  0  0  0  0  0  0
    6.5073   -1.3993    2.5266 C   0  0  0  0  0  0  0  0  0  0  0  0
    7.0398   -2.1153    3.7639 C   0  0  0  0  0  0  0  0  0  0  0  0
    8.5409   -2.1292    3.7878 C   0  0  0  0  0  0  0  0  0  0  0  0
    9.2192   -2.7079    4.7879 C   0  0  0  0  0  0  0  0  0  0  0  0
   10.6935   -2.7188    4.8067 C   0  0  0  0  0  0  0  0  0  0  0  0
   11.3108   -3.2492    5.7233 O   0  0  0  0  0  0  0  0  0  0  0  0
    0.5253    0.5634   -0.8653 H   0  0  0  0  0  0  0  0  0  0  0  0
    0.5095    0.5616    0.9092 H   0  0  0  0  0  0  0  0  0  0  0  0
    0.5095   -0.9741    0.0205 H   0  0  0  0  0  0  0  0  0  0  0  0
    2.7861    1.0763    0.0113 H   0  0  0  0  0  0  0  0  0  0  0  0
    2.7861   -0.4521   -0.8732 H   0  0  0  0  0  0  0  0  0  0  0  0
    2.5669   -1.7027    1.2886 H   0  0  0  0  0  0  0  0  0  0  0  0
    2.5669   -0.1748    2.1727 H   0  0  0  0  0  0  0  0  0  0  0  0
    4.8385    0.3523    1.2625 H   0  0  0  0  0  0  0  0  0  0  0  0
    4.8385   -1.1762    0.3780 H   0  0  0  0  0  0  0  0  0  0  0  0
    4.6070   -2.4252    2.5366 H   0  0  0  0  0  0  0  0  0  0  0  0
    4.6070   -0.8969    3.4210 H   0  0  0  0  0  0  0  0  0  0  0  0
    6.8764   -0.3661    2.5037 H   0  0  0  0  0  0  0  0  0  0  0  0
    6.8764   -1.8943    1.6193 H   0  0  0  0  0  0  0  0  0  0  0  0
    6.6638   -3.1458    3.7739 H   0  0  0  0  0  0  0  0  0  0  0  0
    6.6638   -1.6105    4.6623 H   0  0  0  0  0  0  0  0  0  0  0  0
    9.0665   -1.6520    2.9632 H   0  0  0  0  0  0  0  0  0  0  0  0
    8.7258   -3.1912    5.6231 H   0  0  0  0  0  0  0  0  0  0  0  0
   11.2014   -2.2290    3.9603 H   0  0  0  0  0  0  0  0  0  0  0  0
  1  2  1  0  0  0  0
  1 12  1  0  0  0  0
  1 13  1  0  0  0  0
  1 14  1  0  0  0  0
  2  3  1  0  0  0  0
  2 15  1  0  0  0  0
  2 16  1  0  0  0  0
  3  4  1  0  0  0  0
  3 17  1  0  0  0  0
  3 18  1  0  0  0  0
  4  5  1  0  0  0  0
  4 19  1  0  0  0  0
  4 20  1  0  0  0  0
  5  6  1  0  0  0  0
  5 21  1  0  0  0  0
  5 22  1  0  0  0  0
  6  7  1  0  0  0  0
  6 23  1  0  0  0  0
  6 24  1  0  0  0  0
  7  8  1  0  0  0  0
  7 25  1  0  0  0  0
  7 26  1  0  0  0  0
  8  9  2  0  0  0  0
  8 27  1  0  0  0  0
  9 10  1  0  0  0  0
  9 28  1  0  0  0  0
 10 11  2  0  0  0  0
 10 29  1  0  0  0  0
M  END
$$$$
