
 OpenBabel07122215493D

 31 30  0  0  1  0  0  0  0  0999 V2000
    0.9478   -0.0298    0.0542 C   0  0  0  0  0  0  0  0  0  0  0  0
    2.4751   -0.0924    0.0627 C   0  0  1  0  0  0  0  0  0  0  0  0
    2.9756   -1.5404    0.2145 C   0  0  0  0  0  0  0  0  0  0  0  0
    2.5063   -2.2043    1.4990 C   0  0  0  0  0  0  0  0  0  0  0  0
    3.0314   -3.5221    1.5678 O   0  0  0  0  0  0  0  0  0  0  0  0
    3.0008    0.5541   -1.2315 C   0  0  0  0  0  0  0  0  0  0  0  0
    4.5217    0.5905   -1.2587 C   0  0  0  0  0  0  0  0  0  0  0  0
    5.0716    1.2101   -2.5003 C   0  0  0  0  0  0  0  0  0  0  0  0
    6.3973    1.3044   -2.7302 C   0  0  0  0  0  0  0  0  0  0  0  0
    7.4342    0.8160   -1.7526 C   0  0  0  0  0  0  0  0  0  0  0  0
    6.9123    1.9118   -4.0000 C   0  0  0  0  0  0  0  0  0  0  0  0
    0.5237   -0.4132    0.9856 H   0  0  0  0  0  0  0  0  0  0  0  0
    0.5425   -0.6184   -0.7757 H   0  0  0  0  0  0  0  0  0  0  0  0
    0.6005    1.0022   -0.0533 H   0  0  0  0  0  0  0  0  0  0  0  0
    2.8409    0.4947    0.9162 H   0  0  0  0  0  0  0  0  0  0  0  0
    4.0710   -1.5798    0.2245 H   0  0  0  0  0  0  0  0  0  0  0  0
    2.6712   -2.1380   -0.6546 H   0  0  0  0  0  0  0  0  0  0  0  0
    1.4183   -2.2762    1.5501 H   0  0  0  0  0  0  0  0  0  0  0  0
    2.8635   -1.6432    2.3681 H   0  0  0  0  0  0  0  0  0  0  0  0
    2.6835   -4.0073    0.7998 H   0  0  0  0  0  0  0  0  0  0  0  0
    2.6147    1.5790   -1.3115 H   0  0  0  0  0  0  0  0  0  0  0  0
    2.6260    0.0041   -2.1042 H   0  0  0  0  0  0  0  0  0  0  0  0
    4.9128   -0.4303   -1.2140 H   0  0  0  0  0  0  0  0  0  0  0  0
    4.8782    1.1421   -0.3802 H   0  0  0  0  0  0  0  0  0  0  0  0
    4.3644    1.5671   -3.2443 H   0  0  0  0  0  0  0  0  0  0  0  0
    7.0042    0.3737   -0.8481 H   0  0  0  0  0  0  0  0  0  0  0  0
    8.0664    1.6458   -1.4243 H   0  0  0  0  0  0  0  0  0  0  0  0
    8.0583    0.0436   -2.2112 H   0  0  0  0  0  0  0  0  0  0  0  0
    6.0983    2.2316   -4.6602 H   0  0  0  0  0  0  0  0  0  0  0  0
    7.5190    1.1862   -4.5505 H   0  0  0  0  0  0  0  0  0  0  0  0
    7.5238    2.7910   -3.7768 H   0  0  0  0  0  0  0  0  0  0  0  0
  1  2  1  0  0  0  0
  1 12  1  0  0  0  0
  1 13  1  0  0  0  0
  1 14  1  0  0  0  0
  2  3  1  0  0  0  0
  2  6  1  0  0  0  0
  2 15  1  1  0  0  0
  3  4  1  0  0  0  0
  3 16  1  0  0  0  0
  3 17  1  0  0  0  0
  4  5  1  0  0  0  0
  4 18  1  0  0  0  0
  4 19  1  0  0  0  0
  5 20  1  0  0  0  0
  6  7  1  0  0  0  0
  6 21  1  0  0  0  0
  6 22  1  0  0  0  0
  7  8  1  0  0  0  0
  7 23  1  0  0  0  0
  7 24  1  0  0  0  0
  8  9  2  0  0  0  0
  8 25  1  0  0  0  0
  9 10  1  0  0  0  0
  9 11  1  0  0  0  0
 10 26  1  0  0  0  0
 10 27  1  0  0  0  0
 10 28  1  0  0  0  0
 11 29  1  0  0  0  0
 11 30  1  0  0  0  0
 11 31  1  0  0  0  0
M  END
$$$$
