
 OpenBabel07202215583D

 17 18  0  0  0  0  0  0  0  0999 V2000
    1.0522    0.0363   -0.0212 O   0  0  0  0  0  0  0  0  0  0  0  0
    2.2753    0.0390    0.0858 C   0  0  0  0  0  0  0  0  0  0  0  0
    2.9768   -1.0800    0.7337 C   0  0  0  0  0  0  0  0  0  0  0  0
    4.0429   -0.8249    1.6192 C   0  0  0  0  0  0  0  0  0  0  0  0
    4.6451   -1.8860    2.3076 C   0  0  0  0  0  0  0  0  0  0  0  0
    4.1764   -3.1618    2.0632 C   0  0  0  0  0  0  0  0  0  0  0  0
    4.6236   -4.3034    2.6527 O   0  0  0  0  0  0  0  0  0  0  0  0
    3.7273   -5.2777    2.0750 C   0  0  0  0  0  0  0  0  0  0  0  0
    2.8645   -4.7254    1.0600 O   0  0  0  0  0  0  0  0  0  0  0  0
    3.1617   -3.4029    1.1652 C   0  0  0  0  0  0  0  0  0  0  0  0
    2.5354   -2.3832    0.4851 C   0  0  0  0  0  0  0  0  0  0  0  0
    2.8886    0.8756   -0.2829 H   0  0  0  0  0  0  0  0  0  0  0  0
    4.3784    0.1922    1.8082 H   0  0  0  0  0  0  0  0  0  0  0  0
    5.4409   -1.7155    3.0251 H   0  0  0  0  0  0  0  0  0  0  0  0
    3.0992   -5.6950    2.8715 H   0  0  0  0  0  0  0  0  0  0  0  0
    4.3201   -6.0881    1.6363 H   0  0  0  0  0  0  0  0  0  0  0  0
    1.7261   -2.5833   -0.2084 H   0  0  0  0  0  0  0  0  0  0  0  0
  1  2  2  0  0  0  0
  2  3  1  0  0  0  0
  2 12  1  0  0  0  0
  3  4  1  0  0  0  0
  3 11  2  0  0  0  0
  4  5  2  0  0  0  0
  4 13  1  0  0  0  0
  5  6  1  0  0  0  0
  5 14  1  0  0  0  0
  6  7  1  0  0  0  0
  6 10  2  0  0  0  0
  7  8  1  0  0  0  0
  8  9  1  0  0  0  0
  8 15  1  0  0  0  0
  8 16  1  0  0  0  0
  9 10  1  0  0  0  0
 10 11  1  0  0  0  0
 11 17  1  0  0  0  0
M  END
$$$$
