
 OpenBabel07222214433D

 42 42  0  0  0  0  0  0  0  0999 V2000
    0.8931    0.0804    0.0825 C   0  0  0  0  0  0  0  0  0  0  0  0
    2.3898    0.1628    0.0068 C   0  0  0  0  0  0  0  0  0  0  0  0
    2.8274    0.8317   -1.3034 C   0  0  0  0  0  0  0  0  0  0  0  0
    4.3302    0.7974   -1.2820 C   0  0  0  0  0  0  0  0  0  0  0  0
    5.1062    1.1989   -2.5082 C   0  0  0  0  0  0  0  0  0  0  0  0
    6.6429    1.2007   -2.4461 C   0  0  0  0  0  0  0  0  0  0  0  0
    7.4027    0.6553   -1.4334 C   0  0  0  0  0  0  0  0  0  0  0  0
    6.9453   -0.1215   -0.2724 C   0  0  0  0  0  0  0  0  0  0  0  0
    7.1919    0.3055    1.0391 C   0  0  0  0  0  0  0  0  0  0  0  0
    6.5623   -0.3365    2.1113 C   0  0  0  0  0  0  0  0  0  0  0  0
    5.5803   -1.2957    1.8805 C   0  0  0  0  0  0  0  0  0  0  0  0
    5.3796   -1.7612    0.5859 C   0  0  0  0  0  0  0  0  0  0  0  0
    6.1666   -1.2691   -0.4573 C   0  0  0  0  0  0  0  0  0  0  0  0
    7.3381    1.8109   -3.6915 C   0  0  0  0  0  0  0  0  0  0  0  0
    7.0295    3.1957   -3.8658 O   0  0  0  0  0  0  0  0  0  0  0  0
    5.7669    3.4875   -4.4368 C   0  0  0  0  0  0  0  0  0  0  0  0
    8.7656    1.6745   -3.5525 O   0  0  0  0  0  0  0  0  0  0  0  0
    9.4988    2.1607   -4.6660 C   0  0  0  0  0  0  0  0  0  0  0  0
    0.5914   -0.3771    1.0275 H   0  0  0  0  0  0  0  0  0  0  0  0
    0.5223   -0.5375   -0.7403 H   0  0  0  0  0  0  0  0  0  0  0  0
    0.4605    1.0795    0.0062 H   0  0  0  0  0  0  0  0  0  0  0  0
    2.7830   -0.8601    0.0614 H   0  0  0  0  0  0  0  0  0  0  0  0
    2.8012    0.6985    0.8730 H   0  0  0  0  0  0  0  0  0  0  0  0
    2.4428    1.8496   -1.3955 H   0  0  0  0  0  0  0  0  0  0  0  0
    2.4702    0.2400   -2.1545 H   0  0  0  0  0  0  0  0  0  0  0  0
    4.4647   -0.2598   -1.2090 H   0  0  0  0  0  0  0  0  0  0  0  0
    4.6986    1.3425   -0.4042 H   0  0  0  0  0  0  0  0  0  0  0  0
    4.7349    2.2004   -2.6334 H   0  0  0  0  0  0  0  0  0  0  0  0
    4.7849    0.6043   -3.3729 H   0  0  0  0  0  0  0  0  0  0  0  0
    8.4821    0.7517   -1.4675 H   0  0  0  0  0  0  0  0  0  0  0  0
    7.8330    1.1602    1.2286 H   0  0  0  0  0  0  0  0  0  0  0  0
    6.8005   -0.0509    3.1335 H   0  0  0  0  0  0  0  0  0  0  0  0
    4.9646   -1.6705    2.6918 H   0  0  0  0  0  0  0  0  0  0  0  0
    4.5450   -2.4233    0.3657 H   0  0  0  0  0  0  0  0  0  0  0  0
    5.9628   -1.6134   -1.4746 H   0  0  0  0  0  0  0  0  0  0  0  0
    7.0509    1.2276   -4.5793 H   0  0  0  0  0  0  0  0  0  0  0  0
    5.7722    4.4998   -4.8416 H   0  0  0  0  0  0  0  0  0  0  0  0
    5.0129    3.5561   -3.6608 H   0  0  0  0  0  0  0  0  0  0  0  0
    5.4696    2.7726   -5.2105 H   0  0  0  0  0  0  0  0  0  0  0  0
   10.5668    2.0420   -4.4532 H   0  0  0  0  0  0  0  0  0  0  0  0
    9.3114    3.2255   -4.8319 H   0  0  0  0  0  0  0  0  0  0  0  0
    9.2623    1.5872   -5.5665 H   0  0  0  0  0  0  0  0  0  0  0  0
  1  2  1  0  0  0  0
  1 19  1  0  0  0  0
  1 20  1  0  0  0  0
  1 21  1  0  0  0  0
  2  3  1  0  0  0  0
  2 22  1  0  0  0  0
  2 23  1  0  0  0  0
  3  4  1  0  0  0  0
  3 24  1  0  0  0  0
  3 25  1  0  0  0  0
  4  5  1  0  0  0  0
  4 26  1  0  0  0  0
  4 27  1  0  0  0  0
  5  6  1  0  0  0  0
  5 28  1  0  0  0  0
  5 29  1  0  0  0  0
  6  7  2  0  0  0  0
  6 14  1  0  0  0  0
  7  8  1  0  0  0  0
  7 30  1  0  0  0  0
  8  9  2  0  0  0  0
  8 13  1  0  0  0  0
  9 10  1  0  0  0  0
  9 31  1  0  0  0  0
 10 11  2  0  0  0  0
 10 32  1  0  0  0  0
 11 12  1  0  0  0  0
 11 33  1  0  0  0  0
 12 13  2  0  0  0  0
 12 34  1  0  0  0  0
 13 35  1  0  0  0  0
 14 15  1  0  0  0  0
 14 17  1  0  0  0  0
 14 36  1  0  0  0  0
 15 16  1  0  0  0  0
 16 37  1  0  0  0  0
 16 38  1  0  0  0  0
 16 39  1  0  0  0  0
 17 18  1  0  0  0  0
 18 40  1  0  0  0  0
 18 41  1  0  0  0  0
 18 42  1  0  0  0  0
M  END
$$$$
