
 OpenBabel07202215583D

 26 27  0  0  0  0  0  0  0  0999 V2000
    0.9426    0.2998   -0.0875 C   0  0  0  0  0  0  0  0  0  0  0  0
    2.4481    0.0091   -0.0820 C   0  0  0  0  0  0  0  0  0  0  0  0
    2.9230   -1.0106   -1.1411 C   0  0  0  0  0  0  0  0  0  0  0  0
    2.5014   -2.4547   -0.9166 C   0  0  0  0  0  0  0  0  0  0  0  0
    1.3283   -2.8041   -0.2455 C   0  0  0  0  0  0  0  0  0  0  0  0
    0.9744   -4.1097   -0.0657 C   0  0  0  0  0  0  0  0  0  0  0  0
    1.7511   -5.1298   -0.5100 C   0  0  0  0  0  0  0  0  0  0  0  0
    2.9180   -4.8633   -1.1972 C   0  0  0  0  0  0  0  0  0  0  0  0
    3.2862   -3.5164   -1.4137 C   0  0  0  0  0  0  0  0  0  0  0  0
    1.2152   -6.3312   -0.1682 O   0  0  0  0  0  0  0  0  0  0  0  0
    0.0556   -5.9121    0.5983 C   0  0  0  0  0  0  0  0  0  0  0  0
   -0.1501   -4.4945    0.5851 O   0  0  0  0  0  0  0  0  0  0  0  0
    3.0999    1.3605   -0.3341 C   0  0  0  0  0  0  0  0  0  0  0  0
    4.3039    1.5512   -0.3794 O   0  0  0  0  0  0  0  0  0  0  0  0
    0.2880   -0.5015    0.2150 H   0  0  0  0  0  0  0  0  0  0  0  0
    0.6093    0.5992   -1.0846 H   0  0  0  0  0  0  0  0  0  0  0  0
    0.6993    1.0769    0.6408 H   0  0  0  0  0  0  0  0  0  0  0  0
    2.7671   -0.3216    0.9149 H   0  0  0  0  0  0  0  0  0  0  0  0
    4.0241   -0.9844   -1.1702 H   0  0  0  0  0  0  0  0  0  0  0  0
    2.5992   -0.6903   -2.1409 H   0  0  0  0  0  0  0  0  0  0  0  0
    0.6301   -2.1436    0.2094 H   0  0  0  0  0  0  0  0  0  0  0  0
    3.5451   -5.6700   -1.5563 H   0  0  0  0  0  0  0  0  0  0  0  0
    4.2049   -3.3007   -1.9588 H   0  0  0  0  0  0  0  0  0  0  0  0
    0.1831   -6.2149    1.6441 H   0  0  0  0  0  0  0  0  0  0  0  0
   -0.8436   -6.3880    0.1938 H   0  0  0  0  0  0  0  0  0  0  0  0
    2.3996    2.2087   -0.4721 H   0  0  0  0  0  0  0  0  0  0  0  0
  1  2  1  0  0  0  0
  1 15  1  0  0  0  0
  1 16  1  0  0  0  0
  1 17  1  0  0  0  0
  2  3  1  0  0  0  0
  2 13  1  0  0  0  0
  2 18  1  0  0  0  0
  3  4  1  0  0  0  0
  3 19  1  0  0  0  0
  3 20  1  0  0  0  0
  4  5  2  0  0  0  0
  4  9  1  0  0  0  0
  5  6  1  0  0  0  0
  5 21  1  0  0  0  0
  6  7  2  0  0  0  0
  6 12  1  0  0  0  0
  7  8  1  0  0  0  0
  7 10  1  0  0  0  0
  8  9  2  0  0  0  0
  8 22  1  0  0  0  0
  9 23  1  0  0  0  0
 10 11  1  0  0  0  0
 11 12  1  0  0  0  0
 11 24  1  0  0  0  0
 11 25  1  0  0  0  0
 13 14  2  0  0  0  0
 13 26  1  0  0  0  0
M  END
$$$$
