
 OpenBabel07222214433D

 26 27  0  0  0  0  0  0  0  0999 V2000
    1.0787    0.0739    0.0469 C   0  0  0  0  0  0  0  0  0  0  0  0
    2.5830    0.0146    0.0128 C   0  0  0  0  0  0  0  0  0  0  0  0
    3.1686   -0.8169   -0.6826 O   0  0  0  0  0  0  0  0  0  0  0  0
    3.3204    1.0310    0.8536 C   0  0  0  0  0  0  0  0  0  0  0  0
    4.8414    0.8850    0.7230 C   0  0  0  0  0  0  0  0  0  0  0  0
    5.5600    1.9265    1.5489 C   0  0  0  0  0  0  0  0  0  0  0  0
    5.2712    3.2932    1.3287 C   0  0  0  0  0  0  0  0  0  0  0  0
    5.8106    4.2877    2.1412 C   0  0  0  0  0  0  0  0  0  0  0  0
    6.6694    3.8946    3.1398 C   0  0  0  0  0  0  0  0  0  0  0  0
    7.2661    4.7245    4.0353 O   0  0  0  0  0  0  0  0  0  0  0  0
    7.9690    3.7700    4.8548 C   0  0  0  0  0  0  0  0  0  0  0  0
    7.8827    2.4155    4.3614 O   0  0  0  0  0  0  0  0  0  0  0  0
    7.0101    2.5749    3.3287 C   0  0  0  0  0  0  0  0  0  0  0  0
    6.4789    1.5658    2.5482 C   0  0  0  0  0  0  0  0  0  0  0  0
    0.6730   -0.7100   -0.5985 H   0  0  0  0  0  0  0  0  0  0  0  0
    0.7353    1.0442   -0.3213 H   0  0  0  0  0  0  0  0  0  0  0  0
    0.7240   -0.0903    1.0672 H   0  0  0  0  0  0  0  0  0  0  0  0
    3.0175    0.9126    1.9007 H   0  0  0  0  0  0  0  0  0  0  0  0
    2.9908    2.0216    0.5190 H   0  0  0  0  0  0  0  0  0  0  0  0
    5.1482    0.9926   -0.3252 H   0  0  0  0  0  0  0  0  0  0  0  0
    5.1408   -0.1243    1.0331 H   0  0  0  0  0  0  0  0  0  0  0  0
    4.5978    3.5846    0.5257 H   0  0  0  0  0  0  0  0  0  0  0  0
    5.5496    5.3286    1.9968 H   0  0  0  0  0  0  0  0  0  0  0  0
    7.5423    3.7997    5.8646 H   0  0  0  0  0  0  0  0  0  0  0  0
    9.0223    4.0665    4.9110 H   0  0  0  0  0  0  0  0  0  0  0  0
    6.7547    0.5315    2.7289 H   0  0  0  0  0  0  0  0  0  0  0  0
  1  2  1  0  0  0  0
  1 15  1  0  0  0  0
  1 16  1  0  0  0  0
  1 17  1  0  0  0  0
  2  3  2  0  0  0  0
  2  4  1  0  0  0  0
  4  5  1  0  0  0  0
  4 18  1  0  0  0  0
  4 19  1  0  0  0  0
  5  6  1  0  0  0  0
  5 20  1  0  0  0  0
  5 21  1  0  0  0  0
  6  7  1  0  0  0  0
  6 14  2  0  0  0  0
  7  8  2  0  0  0  0
  7 22  1  0  0  0  0
  8  9  1  0  0  0  0
  8 23  1  0  0  0  0
  9 10  1  0  0  0  0
  9 13  2  0  0  0  0
 10 11  1  0  0  0  0
 11 12  1  0  0  0  0
 11 24  1  0  0  0  0
 11 25  1  0  0  0  0
 12 13  1  0  0  0  0
 13 14  1  0  0  0  0
 14 26  1  0  0  0  0
M  END
$$$$
