
 OpenBabel07222214433D

 35 36  0  0  0  0  0  0  0  0999 V2000
    0.8566    0.2515   -0.1192 C   0  0  0  0  0  0  0  0  0  0  0  0
    2.3702    0.1476   -0.0448 C   0  0  0  0  0  0  0  0  0  0  0  0
    3.0351   -1.0082   -0.8290 C   0  0  0  0  0  0  0  0  0  0  0  0
    2.5676   -0.9462   -2.1824 O   0  0  0  0  0  0  0  0  0  0  0  0
    2.8738   -2.4776   -0.2508 C   0  0  0  0  0  0  0  0  0  0  0  0
    1.9931   -2.6229    1.0015 C   0  0  0  0  0  0  0  0  0  0  0  0
    2.2897   -3.4760   -1.2851 C   0  0  0  0  0  0  0  0  0  0  0  0
    4.3648   -2.8519    0.0557 C   0  0  0  0  0  0  0  0  0  0  0  0
    4.9331   -2.0084    1.2193 C   0  0  0  0  0  0  0  0  0  0  0  0
    5.1536   -0.6300    0.5835 C   0  0  0  0  0  0  0  0  0  0  0  0
    4.6107   -0.8264   -0.8521 C   0  0  0  0  0  0  0  0  0  0  0  0
    5.1359    0.2062   -1.8400 C   0  0  0  0  0  0  0  0  0  0  0  0
    5.1210   -2.2469   -1.1308 C   0  0  0  0  0  0  0  0  0  0  0  0
    0.5284    1.0877    0.5070 H   0  0  0  0  0  0  0  0  0  0  0  0
    0.3581   -0.6401    0.2564 H   0  0  0  0  0  0  0  0  0  0  0  0
    0.5126    0.4376   -1.1385 H   0  0  0  0  0  0  0  0  0  0  0  0
    2.6392    0.1064    1.0139 H   0  0  0  0  0  0  0  0  0  0  0  0
    2.7646    1.0983   -0.4249 H   0  0  0  0  0  0  0  0  0  0  0  0
    1.6179   -1.1377   -2.1834 H   0  0  0  0  0  0  0  0  0  0  0  0
    0.9322   -2.5402    0.7488 H   0  0  0  0  0  0  0  0  0  0  0  0
    2.2035   -1.8800    1.7729 H   0  0  0  0  0  0  0  0  0  0  0  0
    2.1237   -3.6115    1.4549 H   0  0  0  0  0  0  0  0  0  0  0  0
    1.2491   -3.2243   -1.5233 H   0  0  0  0  0  0  0  0  0  0  0  0
    2.2910   -4.4969   -0.8854 H   0  0  0  0  0  0  0  0  0  0  0  0
    2.8440   -3.4982   -2.2277 H   0  0  0  0  0  0  0  0  0  0  0  0
    4.5261   -3.9244    0.1943 H   0  0  0  0  0  0  0  0  0  0  0  0
    5.8923   -2.4143    1.5589 H   0  0  0  0  0  0  0  0  0  0  0  0
    4.2812   -1.9619    2.0940 H   0  0  0  0  0  0  0  0  0  0  0  0
    6.2235   -0.3905    0.5776 H   0  0  0  0  0  0  0  0  0  0  0  0
    4.6695    0.1730    1.1434 H   0  0  0  0  0  0  0  0  0  0  0  0
    4.7363    1.2018   -1.6254 H   0  0  0  0  0  0  0  0  0  0  0  0
    4.8673   -0.0495   -2.8709 H   0  0  0  0  0  0  0  0  0  0  0  0
    6.2285    0.2728   -1.7998 H   0  0  0  0  0  0  0  0  0  0  0  0
    6.2100   -2.3387   -1.0268 H   0  0  0  0  0  0  0  0  0  0  0  0
    4.8343   -2.6410   -2.1085 H   0  0  0  0  0  0  0  0  0  0  0  0
  1  2  1  0  0  0  0
  1 14  1  0  0  0  0
  1 15  1  0  0  0  0
  1 16  1  0  0  0  0
  2  3  1  0  0  0  0
  2 17  1  0  0  0  0
  2 18  1  0  0  0  0
  3  4  1  0  0  0  0
  3  5  1  0  0  0  0
  3 11  1  0  0  0  0
  4 19  1  0  0  0  0
  5  6  1  0  0  0  0
  5  7  1  0  0  0  0
  5  8  1  0  0  0  0
  6 20  1  0  0  0  0
  6 21  1  0  0  0  0
  6 22  1  0  0  0  0
  7 23  1  0  0  0  0
  7 24  1  0  0  0  0
  7 25  1  0  0  0  0
  8  9  1  0  0  0  0
  8 13  1  0  0  0  0
  8 26  1  0  0  0  0
  9 10  1  0  0  0  0
  9 27  1  0  0  0  0
  9 28  1  0  0  0  0
 10 11  1  0  0  0  0
 10 29  1  0  0  0  0
 10 30  1  0  0  0  0
 11 12  1  0  0  0  0
 11 13  1  0  0  0  0
 12 31  1  0  0  0  0
 12 32  1  0  0  0  0
 12 33  1  0  0  0  0
 13 34  1  0  0  0  0
 13 35  1  0  0  0  0
M  END
$$$$
