
 OpenBabel07222214433D

 24 24  0  0  1  0  0  0  0  0999 V2000
    0.9208   -0.0225    0.0987 C   0  0  0  0  0  0  0  0  0  0  0  0
    2.4454   -0.0362    0.0765 C   0  0  0  0  0  0  0  0  0  0  0  0
    3.0352   -0.8282   -1.1157 C   0  0  1  0  0  0  0  0  0  0  0  0
    2.5534   -0.2455   -2.4315 C   0  0  0  0  0  0  0  0  0  0  0  0
    2.7749    1.1125   -2.7123 C   0  0  0  0  0  0  0  0  0  0  0  0
    2.2340    1.6967   -3.8509 C   0  0  0  0  0  0  0  0  0  0  0  0
    1.5475    0.9098   -4.7699 C   0  0  0  0  0  0  0  0  0  0  0  0
    1.3404   -0.4464   -4.5161 C   0  0  0  0  0  0  0  0  0  0  0  0
    1.8246   -1.0226   -3.3414 C   0  0  0  0  0  0  0  0  0  0  0  0
    4.5624   -0.8382   -1.0448 C   0  0  0  0  0  0  0  0  0  0  0  0
    5.2199   -0.2678   -0.1804 O   0  0  0  0  0  0  0  0  0  0  0  0
    5.1646   -1.5577   -2.0221 O   0  0  0  0  0  0  0  0  0  0  0  0
    0.5624    0.5654    0.9492 H   0  0  0  0  0  0  0  0  0  0  0  0
    0.5243   -1.0378    0.1877 H   0  0  0  0  0  0  0  0  0  0  0  0
    0.5025    0.4316   -0.8053 H   0  0  0  0  0  0  0  0  0  0  0  0
    2.8089   -0.4643    1.0184 H   0  0  0  0  0  0  0  0  0  0  0  0
    2.8034    1.0014    0.0650 H   0  0  0  0  0  0  0  0  0  0  0  0
    2.7049   -1.8720   -1.0167 H   0  0  0  0  0  0  0  0  0  0  0  0
    3.3469    1.7338   -2.0243 H   0  0  0  0  0  0  0  0  0  0  0  0
    2.3433    2.7660   -4.0106 H   0  0  0  0  0  0  0  0  0  0  0  0
    1.1709    1.3588   -5.6845 H   0  0  0  0  0  0  0  0  0  0  0  0
    0.7797   -1.0479   -5.2271 H   0  0  0  0  0  0  0  0  0  0  0  0
    1.6079   -2.0694   -3.1380 H   0  0  0  0  0  0  0  0  0  0  0  0
    4.5539   -1.9165   -2.6946 H   0  0  0  0  0  0  0  0  0  0  0  0
  1  2  1  0  0  0  0
  1 13  1  0  0  0  0
  1 14  1  0  0  0  0
  1 15  1  0  0  0  0
  2  3  1  0  0  0  0
  2 16  1  0  0  0  0
  2 17  1  0  0  0  0
  3  4  1  0  0  0  0
  3 10  1  0  0  0  0
  3 18  1  1  0  0  0
  4  5  2  0  0  0  0
  4  9  1  0  0  0  0
  5  6  1  0  0  0  0
  5 19  1  0  0  0  0
  6  7  2  0  0  0  0
  6 20  1  0  0  0  0
  7  8  1  0  0  0  0
  7 21  1  0  0  0  0
  8  9  2  0  0  0  0
  8 22  1  0  0  0  0
  9 23  1  0  0  0  0
 10 11  2  0  0  0  0
 10 12  1  0  0  0  0
 12 24  1  0  0  0  0
M  END
$$$$
