
 OpenBabel07222214433D

 30 29  0  0  0  0  0  0  0  0999 V2000
    0.9090   -0.0042   -0.0565 C   0  0  0  0  0  0  0  0  0  0  0  0
    2.4266   -0.0035   -0.0672 C   0  0  0  0  0  0  0  0  0  0  0  0
    2.9563    0.0819   -1.4938 C   0  0  0  0  0  0  0  0  0  0  0  0
    4.4797    0.0827   -1.5073 C   0  0  0  0  0  0  0  0  0  0  0  0
    5.0006    0.1681   -2.9362 C   0  0  0  0  0  0  0  0  0  0  0  0
    6.5237    0.1689   -2.9507 C   0  0  0  0  0  0  0  0  0  0  0  0
    7.0433    0.2544   -4.3801 C   0  0  0  0  0  0  0  0  0  0  0  0
    8.5656    0.2567   -4.4038 C   0  0  0  0  0  0  0  0  0  0  0  0
    9.0848    0.3441   -5.8298 C   0  0  0  0  0  0  0  0  0  0  0  0
   10.5052    0.3384   -5.8240 O   0  0  0  0  0  0  0  0  0  0  0  0
    0.5369   -0.0656    0.9699 H   0  0  0  0  0  0  0  0  0  0  0  0
    0.5169   -0.8594   -0.6162 H   0  0  0  0  0  0  0  0  0  0  0  0
    0.5169    0.9117   -0.5102 H   0  0  0  0  0  0  0  0  0  0  0  0
    2.7960   -0.9167    0.4139 H   0  0  0  0  0  0  0  0  0  0  0  0
    2.7960    0.8457    0.5195 H   0  0  0  0  0  0  0  0  0  0  0  0
    2.5833    0.9947   -1.9744 H   0  0  0  0  0  0  0  0  0  0  0  0
    2.5833   -0.7671   -2.0799 H   0  0  0  0  0  0  0  0  0  0  0  0
    4.8563   -0.8304   -1.0303 H   0  0  0  0  0  0  0  0  0  0  0  0
    4.8564    0.9323   -0.9248 H   0  0  0  0  0  0  0  0  0  0  0  0
    4.6245    1.0810   -3.4144 H   0  0  0  0  0  0  0  0  0  0  0  0
    4.6243   -0.6811   -3.5199 H   0  0  0  0  0  0  0  0  0  0  0  0
    6.8989   -0.7442   -2.4726 H   0  0  0  0  0  0  0  0  0  0  0  0
    6.8988    1.0185   -2.3671 H   0  0  0  0  0  0  0  0  0  0  0  0
    6.6637    1.1670   -4.8559 H   0  0  0  0  0  0  0  0  0  0  0  0
    6.6643   -0.5950   -4.9615 H   0  0  0  0  0  0  0  0  0  0  0  0
    8.9563   -0.6496   -3.9246 H   0  0  0  0  0  0  0  0  0  0  0  0
    8.9530    1.0984   -3.8162 H   0  0  0  0  0  0  0  0  0  0  0  0
    8.7413    1.2606   -6.3203 H   0  0  0  0  0  0  0  0  0  0  0  0
    8.7415   -0.5107   -6.4201 H   0  0  0  0  0  0  0  0  0  0  0  0
   10.7967    1.1029   -5.3026 H   0  0  0  0  0  0  0  0  0  0  0  0
  1  2  1  0  0  0  0
  1 11  1  0  0  0  0
  1 12  1  0  0  0  0
  1 13  1  0  0  0  0
  2  3  1  0  0  0  0
  2 14  1  0  0  0  0
  2 15  1  0  0  0  0
  3  4  1  0  0  0  0
  3 16  1  0  0  0  0
  3 17  1  0  0  0  0
  4  5  1  0  0  0  0
  4 18  1  0  0  0  0
  4 19  1  0  0  0  0
  5  6  1  0  0  0  0
  5 20  1  0  0  0  0
  5 21  1  0  0  0  0
  6  7  1  0  0  0  0
  6 22  1  0  0  0  0
  6 23  1  0  0  0  0
  7  8  1  0  0  0  0
  7 24  1  0  0  0  0
  7 25  1  0  0  0  0
  8  9  1  0  0  0  0
  8 26  1  0  0  0  0
  8 27  1  0  0  0  0
  9 10  1  0  0  0  0
  9 28  1  0  0  0  0
  9 29  1  0  0  0  0
 10 30  1  0  0  0  0
M  END
$$$$
