
 OpenBabel07202215583D

 29 28  0  0  0  0  0  0  0  0999 V2000
    1.0130   -0.0838   -0.0537 C   0  0  0  0  0  0  0  0  0  0  0  0
    2.5290   -0.0803   -0.0561 C   0  0  0  0  0  0  0  0  0  0  0  0
    3.0594    1.0939   -0.8653 C   0  0  0  0  0  0  0  0  0  0  0  0
    4.5826    1.0936   -0.8651 C   0  0  0  0  0  0  0  0  0  0  0  0
    5.0974    2.2699   -1.6758 C   0  0  0  0  0  0  0  0  0  0  0  0
    6.5952    2.3169   -1.7081 C   0  0  0  0  0  0  0  0  0  0  0  0
    7.2641    3.2738   -2.3676 C   0  0  0  0  0  0  0  0  0  0  0  0
    6.5632    4.3678   -3.1215 C   0  0  0  0  0  0  0  0  0  0  0  0
    7.5422    5.3229   -3.7797 C   0  0  0  0  0  0  0  0  0  0  0  0
    6.8041    6.4012   -4.5228 C   0  0  0  0  0  0  0  0  0  0  0  0
    7.3823    7.2944   -5.1384 O   0  0  0  0  0  0  0  0  0  0  0  0
    0.6380   -0.9292    0.5289 H   0  0  0  0  0  0  0  0  0  0  0  0
    0.6244   -0.1671   -1.0737 H   0  0  0  0  0  0  0  0  0  0  0  0
    0.6244    0.8397    0.3873 H   0  0  0  0  0  0  0  0  0  0  0  0
    2.8987   -1.0210   -0.4804 H   0  0  0  0  0  0  0  0  0  0  0  0
    2.8987   -0.0187    0.9740 H   0  0  0  0  0  0  0  0  0  0  0  0
    2.6880    2.0366   -0.4437 H   0  0  0  0  0  0  0  0  0  0  0  0
    2.6880    1.0355   -1.8964 H   0  0  0  0  0  0  0  0  0  0  0  0
    4.9554    0.1543   -1.2916 H   0  0  0  0  0  0  0  0  0  0  0  0
    4.9554    1.1577    0.1644 H   0  0  0  0  0  0  0  0  0  0  0  0
    4.7133    3.2006   -1.2396 H   0  0  0  0  0  0  0  0  0  0  0  0
    4.7133    2.1936   -2.7008 H   0  0  0  0  0  0  0  0  0  0  0  0
    7.1521    1.5470   -1.1776 H   0  0  0  0  0  0  0  0  0  0  0  0
    8.3520    3.2558   -2.3552 H   0  0  0  0  0  0  0  0  0  0  0  0
    5.9159    4.9283   -2.4342 H   0  0  0  0  0  0  0  0  0  0  0  0
    5.9159    3.9251   -3.8900 H   0  0  0  0  0  0  0  0  0  0  0  0
    8.1734    4.7834   -4.4931 H   0  0  0  0  0  0  0  0  0  0  0  0
    8.1734    5.7975   -3.0216 H   0  0  0  0  0  0  0  0  0  0  0  0
    5.7018    6.3633   -4.4967 H   0  0  0  0  0  0  0  0  0  0  0  0
  1  2  1  0  0  0  0
  1 12  1  0  0  0  0
  1 13  1  0  0  0  0
  1 14  1  0  0  0  0
  2  3  1  0  0  0  0
  2 15  1  0  0  0  0
  2 16  1  0  0  0  0
  3  4  1  0  0  0  0
  3 17  1  0  0  0  0
  3 18  1  0  0  0  0
  4  5  1  0  0  0  0
  4 19  1  0  0  0  0
  4 20  1  0  0  0  0
  5  6  1  0  0  0  0
  5 21  1  0  0  0  0
  5 22  1  0  0  0  0
  6  7  2  0  0  0  0
  6 23  1  0  0  0  0
  7  8  1  0  0  0  0
  7 24  1  0  0  0  0
  8  9  1  0  0  0  0
  8 25  1  0  0  0  0
  8 26  1  0  0  0  0
  9 10  1  0  0  0  0
  9 27  1  0  0  0  0
  9 28  1  0  0  0  0
 10 11  2  0  0  0  0
 10 29  1  0  0  0  0
M  END
$$$$
