
 OpenBabel07202215583D

 22 21  0  0  0  0  0  0  0  0999 V2000
    0.9299   -0.0511    0.0739 C   0  0  0  0  0  0  0  0  0  0  0  0
    2.4471   -0.0558    0.0653 C   0  0  0  0  0  0  0  0  0  0  0  0
    2.9734   -0.7376   -1.1924 C   0  0  0  0  0  0  0  0  0  0  0  0
    4.4965   -0.7449   -1.2060 C   0  0  0  0  0  0  0  0  0  0  0  0
    5.0218   -1.4270   -2.4642 C   0  0  0  0  0  0  0  0  0  0  0  0
    6.5438   -1.4312   -2.4720 C   0  0  0  0  0  0  0  0  0  0  0  0
    7.0763   -2.1013   -3.7082 C   0  0  0  0  0  0  0  0  0  0  0  0
    8.2787   -2.2218   -3.9304 O   0  0  0  0  0  0  0  0  0  0  0  0
    0.5564    0.4386    0.9773 H   0  0  0  0  0  0  0  0  0  0  0  0
    0.5395   -1.0735    0.0493 H   0  0  0  0  0  0  0  0  0  0  0  0
    0.5395    0.4863   -0.7962 H   0  0  0  0  0  0  0  0  0  0  0  0
    2.8169   -0.5772    0.9559 H   0  0  0  0  0  0  0  0  0  0  0  0
    2.8169    0.9751    0.1144 H   0  0  0  0  0  0  0  0  0  0  0  0
    2.5986   -0.2155   -2.0814 H   0  0  0  0  0  0  0  0  0  0  0  0
    2.5986   -1.7674   -1.2402 H   0  0  0  0  0  0  0  0  0  0  0  0
    4.8713   -1.2674   -0.3173 H   0  0  0  0  0  0  0  0  0  0  0  0
    4.8713    0.2849   -1.1587 H   0  0  0  0  0  0  0  0  0  0  0  0
    4.6440   -0.9088   -3.3547 H   0  0  0  0  0  0  0  0  0  0  0  0
    4.6440   -2.4560   -2.5160 H   0  0  0  0  0  0  0  0  0  0  0  0
    6.9226   -1.9726   -1.5988 H   0  0  0  0  0  0  0  0  0  0  0  0
    6.9226   -0.4041   -2.4491 H   0  0  0  0  0  0  0  0  0  0  0  0
    6.3319   -2.4891   -4.4235 H   0  0  0  0  0  0  0  0  0  0  0  0
  1  2  1  0  0  0  0
  1  9  1  0  0  0  0
  1 10  1  0  0  0  0
  1 11  1  0  0  0  0
  2  3  1  0  0  0  0
  2 12  1  0  0  0  0
  2 13  1  0  0  0  0
  3  4  1  0  0  0  0
  3 14  1  0  0  0  0
  3 15  1  0  0  0  0
  4  5  1  0  0  0  0
  4 16  1  0  0  0  0
  4 17  1  0  0  0  0
  5  6  1  0  0  0  0
  5 18  1  0  0  0  0
  5 19  1  0  0  0  0
  6  7  1  0  0  0  0
  6 20  1  0  0  0  0
  6 21  1  0  0  0  0
  7  8  2  0  0  0  0
  7 22  1  0  0  0  0
M  END
$$$$
