
 OpenBabel07202215583D

 30 30  0  0  0  0  0  0  0  0999 V2000
    0.9584   -0.0752    0.0028 C   0  0  0  0  0  0  0  0  0  0  0  0
    2.4801    0.0010   -0.0245 C   0  0  0  0  0  0  0  0  0  0  0  0
    2.9260    1.3601   -0.5162 C   0  0  0  0  0  0  0  0  0  0  0  0
    2.1617    2.2627   -0.8481 O   0  0  0  0  0  0  0  0  0  0  0  0
    4.2840    1.4638   -0.5471 O   0  0  0  0  0  0  0  0  0  0  0  0
    4.7398    2.7484   -1.0137 C   0  0  0  0  0  0  0  0  0  0  0  0
    6.2561    2.7524   -1.0351 C   0  0  0  0  0  0  0  0  0  0  0  0
    6.8396    4.0758   -1.5475 C   0  0  0  0  0  0  0  0  0  0  0  0
    8.3529    4.1024   -1.5262 C   0  0  0  0  0  0  0  0  0  0  0  0
    9.1154    2.9250   -1.5096 C   0  0  0  0  0  0  0  0  0  0  0  0
   10.4930    2.9658   -1.3228 C   0  0  0  0  0  0  0  0  0  0  0  0
   11.1466    4.1901   -1.2708 C   0  0  0  0  0  0  0  0  0  0  0  0
   10.4153    5.3732   -1.3644 C   0  0  0  0  0  0  0  0  0  0  0  0
    9.0242    5.3320   -1.4858 C   0  0  0  0  0  0  0  0  0  0  0  0
    0.6142   -1.0509    0.3573 H   0  0  0  0  0  0  0  0  0  0  0  0
    0.5439    0.0907   -0.9980 H   0  0  0  0  0  0  0  0  0  0  0  0
    0.5437    0.6945    0.6634 H   0  0  0  0  0  0  0  0  0  0  0  0
    2.8696   -0.7751   -0.6921 H   0  0  0  0  0  0  0  0  0  0  0  0
    2.8690   -0.1669    0.9855 H   0  0  0  0  0  0  0  0  0  0  0  0
    4.3755    3.5339   -0.3426 H   0  0  0  0  0  0  0  0  0  0  0  0
    4.3660    2.9200   -2.0298 H   0  0  0  0  0  0  0  0  0  0  0  0
    6.5787    1.9191   -1.6693 H   0  0  0  0  0  0  0  0  0  0  0  0
    6.6394    2.5389   -0.0281 H   0  0  0  0  0  0  0  0  0  0  0  0
    6.4732    4.8866   -0.9023 H   0  0  0  0  0  0  0  0  0  0  0  0
    6.4887    4.2852   -2.5652 H   0  0  0  0  0  0  0  0  0  0  0  0
    8.6539    1.9477   -1.6112 H   0  0  0  0  0  0  0  0  0  0  0  0
   11.0438    2.0371   -1.2041 H   0  0  0  0  0  0  0  0  0  0  0  0
   12.2263    4.2180   -1.1620 H   0  0  0  0  0  0  0  0  0  0  0  0
   10.9282    6.3298   -1.3166 H   0  0  0  0  0  0  0  0  0  0  0  0
    8.4678    6.2661   -1.5287 H   0  0  0  0  0  0  0  0  0  0  0  0
  1  2  1  0  0  0  0
  1 15  1  0  0  0  0
  1 16  1  0  0  0  0
  1 17  1  0  0  0  0
  2  3  1  0  0  0  0
  2 18  1  0  0  0  0
  2 19  1  0  0  0  0
  3  4  2  0  0  0  0
  3  5  1  0  0  0  0
  5  6  1  0  0  0  0
  6  7  1  0  0  0  0
  6 20  1  0  0  0  0
  6 21  1  0  0  0  0
  7  8  1  0  0  0  0
  7 22  1  0  0  0  0
  7 23  1  0  0  0  0
  8  9  1  0  0  0  0
  8 24  1  0  0  0  0
  8 25  1  0  0  0  0
  9 10  1  0  0  0  0
  9 14  2  0  0  0  0
 10 11  2  0  0  0  0
 10 26  1  0  0  0  0
 11 12  1  0  0  0  0
 11 27  1  0  0  0  0
 12 13  2  0  0  0  0
 12 28  1  0  0  0  0
 13 14  1  0  0  0  0
 13 29  1  0  0  0  0
 14 30  1  0  0  0  0
M  END
$$$$
