
 OpenBabel07202215583D

 23 23  0  0  0  0  0  0  0  0999 V2000
    0.9326   -0.0111    0.0114 C   0  0  0  0  0  0  0  0  0  0  0  0
    2.3487    0.1406    0.0168 O   0  0  0  0  0  0  0  0  0  0  0  0
    3.0051   -0.4456    1.0617 C   0  0  0  0  0  0  0  0  0  0  0  0
    4.2025    0.1521    1.4581 C   0  0  0  0  0  0  0  0  0  0  0  0
    5.0016   -0.4345    2.4499 C   0  0  0  0  0  0  0  0  0  0  0  0
    4.5860   -1.6070    3.1012 C   0  0  0  0  0  0  0  0  0  0  0  0
    5.4140   -2.1569    4.2529 C   0  0  0  0  0  0  0  0  0  0  0  0
    4.8560   -3.3704    4.9523 C   0  0  0  0  0  0  0  0  0  0  0  0
    5.4140   -3.9803    6.0097 C   0  0  0  0  0  0  0  0  0  0  0  0
    3.3910   -2.1969    2.6685 C   0  0  0  0  0  0  0  0  0  0  0  0
    2.6068   -1.6260    1.6698 C   0  0  0  0  0  0  0  0  0  0  0  0
    0.5631    0.3732   -0.9434 H   0  0  0  0  0  0  0  0  0  0  0  0
    0.4954    0.5854    0.8175 H   0  0  0  0  0  0  0  0  0  0  0  0
    0.5978   -1.0507    0.0765 H   0  0  0  0  0  0  0  0  0  0  0  0
    4.5120    1.0871    0.9976 H   0  0  0  0  0  0  0  0  0  0  0  0
    5.9503    0.0345    2.7057 H   0  0  0  0  0  0  0  0  0  0  0  0
    5.5048   -1.3517    4.9951 H   0  0  0  0  0  0  0  0  0  0  0  0
    6.4209   -2.3864    3.8810 H   0  0  0  0  0  0  0  0  0  0  0  0
    3.9280   -3.8115    4.6184 H   0  0  0  0  0  0  0  0  0  0  0  0
    6.3372   -3.6348    6.4515 H   0  0  0  0  0  0  0  0  0  0  0  0
    4.9218   -4.8479    6.4379 H   0  0  0  0  0  0  0  0  0  0  0  0
    3.0211   -3.1285    3.0768 H   0  0  0  0  0  0  0  0  0  0  0  0
    1.7067   -2.1574    1.3870 H   0  0  0  0  0  0  0  0  0  0  0  0
  1  2  1  0  0  0  0
  1 12  1  0  0  0  0
  1 13  1  0  0  0  0
  1 14  1  0  0  0  0
  2  3  1  0  0  0  0
  3  4  1  0  0  0  0
  3 11  2  0  0  0  0
  4  5  2  0  0  0  0
  4 15  1  0  0  0  0
  5  6  1  0  0  0  0
  5 16  1  0  0  0  0
  6  7  1  0  0  0  0
  6 10  2  0  0  0  0
  7  8  1  0  0  0  0
  7 17  1  0  0  0  0
  7 18  1  0  0  0  0
  8  9  2  0  0  0  0
  8 19  1  0  0  0  0
  9 20  1  0  0  0  0
  9 21  1  0  0  0  0
 10 11  1  0  0  0  0
 10 22  1  0  0  0  0
 11 23  1  0  0  0  0
M  END
$$$$
