
 OpenBabel07202215583D

 17 17  0  0  0  0  0  0  0  0999 V2000
    0.9785    0.1223   -0.0067 C   0  0  0  0  0  0  0  0  0  0  0  0
    2.4973    0.0156    0.0121 C   0  0  0  0  0  0  0  0  0  0  0  0
    3.0201   -1.2054   -0.6542 C   0  0  0  0  0  0  0  0  0  0  0  0
    4.0137   -0.8786   -1.4793 C   0  0  0  0  0  0  0  0  0  0  0  0
    4.1800    0.5871   -1.4064 C   0  0  0  0  0  0  0  0  0  0  0  0
    5.0894    1.2404   -1.8903 O   0  0  0  0  0  0  0  0  0  0  0  0
    3.1247    1.0909   -0.6955 O   0  0  0  0  0  0  0  0  0  0  0  0
    4.7599   -1.7102   -2.2635 O   0  0  0  0  0  0  0  0  0  0  0  0
    2.4808   -2.5658   -0.4107 C   0  0  0  0  0  0  0  0  0  0  0  0
    0.5347   -0.6746    0.6014 H   0  0  0  0  0  0  0  0  0  0  0  0
    0.5737    0.0415   -1.0208 H   0  0  0  0  0  0  0  0  0  0  0  0
    0.6399    1.0765    0.4083 H   0  0  0  0  0  0  0  0  0  0  0  0
    2.8426    0.0793    1.0500 H   0  0  0  0  0  0  0  0  0  0  0  0
    4.4323   -2.6174   -2.1503 H   0  0  0  0  0  0  0  0  0  0  0  0
    1.6689   -2.5626    0.3206 H   0  0  0  0  0  0  0  0  0  0  0  0
    3.2648   -3.2248   -0.0286 H   0  0  0  0  0  0  0  0  0  0  0  0
    2.0852   -2.9816   -1.3431 H   0  0  0  0  0  0  0  0  0  0  0  0
  1  2  1  0  0  0  0
  1 10  1  0  0  0  0
  1 11  1  0  0  0  0
  1 12  1  0  0  0  0
  2  3  1  0  0  0  0
  2  7  1  0  0  0  0
  2 13  1  0  0  0  0
  3  4  2  0  0  0  0
  3  9  1  0  0  0  0
  4  5  1  0  0  0  0
  4  8  1  0  0  0  0
  5  6  2  0  0  0  0
  5  7  1  0  0  0  0
  8 14  1  0  0  0  0
  9 15  1  0  0  0  0
  9 16  1  0  0  0  0
  9 17  1  0  0  0  0
M  END
$$$$
