
 OpenBabel07122215493D

 26 25  0  0  0  0  0  0  0  0999 V2000
    0.9120   -0.0462    0.0321 C   0  0  0  0  0  0  0  0  0  0  0  0
    2.4280   -0.0532    0.0371 C   0  0  0  0  0  0  0  0  0  0  0  0
    2.9486   -1.2122    0.8760 C   0  0  0  0  0  0  0  0  0  0  0  0
    4.4677   -1.2242    0.8847 C   0  0  0  0  0  0  0  0  0  0  0  0
    4.9842   -2.3850    1.7248 C   0  0  0  0  0  0  0  0  0  0  0  0
    6.5037   -2.3751    1.7177 C   0  0  0  0  0  0  0  0  0  0  0  0
    7.0811   -3.5131    2.5413 C   0  0  0  0  0  0  0  0  0  0  0  0
    8.5911   -3.5736    2.5851 C   0  0  0  0  0  0  0  0  0  0  0  0
    9.2689   -2.6307    1.9026 O   0  0  0  0  0  0  0  0  0  0  0  0
    9.1833   -4.4433    3.2145 O   0  0  0  0  0  0  0  0  0  0  0  0
    0.5383    0.7858   -0.5701 H   0  0  0  0  0  0  0  0  0  0  0  0
    0.5230    0.0607    1.0498 H   0  0  0  0  0  0  0  0  0  0  0  0
    0.5230   -0.9795   -0.3875 H   0  0  0  0  0  0  0  0  0  0  0  0
    2.7995    0.8965    0.4398 H   0  0  0  0  0  0  0  0  0  0  0  0
    2.7995   -0.1389   -0.9908 H   0  0  0  0  0  0  0  0  0  0  0  0
    2.5754   -2.1617    0.4732 H   0  0  0  0  0  0  0  0  0  0  0  0
    2.5754   -1.1263    1.9038 H   0  0  0  0  0  0  0  0  0  0  0  0
    4.8457   -0.2764    1.2881 H   0  0  0  0  0  0  0  0  0  0  0  0
    4.8457   -1.3112   -0.1417 H   0  0  0  0  0  0  0  0  0  0  0  0
    4.6120   -3.3341    1.3206 H   0  0  0  0  0  0  0  0  0  0  0  0
    4.6120   -2.2976    2.7526 H   0  0  0  0  0  0  0  0  0  0  0  0
    6.8566   -1.4158    2.1160 H   0  0  0  0  0  0  0  0  0  0  0  0
    6.8566   -2.4537    0.6819 H   0  0  0  0  0  0  0  0  0  0  0  0
    6.7243   -4.4680    2.1365 H   0  0  0  0  0  0  0  0  0  0  0  0
    6.7243   -3.4270    3.5748 H   0  0  0  0  0  0  0  0  0  0  0  0
    8.7526   -1.9623    1.4189 H   0  0  0  0  0  0  0  0  0  0  0  0
  1  2  1  0  0  0  0
  1 11  1  0  0  0  0
  1 12  1  0  0  0  0
  1 13  1  0  0  0  0
  2  3  1  0  0  0  0
  2 14  1  0  0  0  0
  2 15  1  0  0  0  0
  3  4  1  0  0  0  0
  3 16  1  0  0  0  0
  3 17  1  0  0  0  0
  4  5  1  0  0  0  0
  4 18  1  0  0  0  0
  4 19  1  0  0  0  0
  5  6  1  0  0  0  0
  5 20  1  0  0  0  0
  5 21  1  0  0  0  0
  6  7  1  0  0  0  0
  6 22  1  0  0  0  0
  6 23  1  0  0  0  0
  7  8  1  0  0  0  0
  7 24  1  0  0  0  0
  7 25  1  0  0  0  0
  8  9  1  0  0  0  0
  8 10  2  0  0  0  0
  9 26  1  0  0  0  0
M  END
$$$$
