
 OpenBabel07202215583D

 22 22  0  0  0  0  0  0  0  0999 V2000
    1.0723    0.0020    0.0361 C   0  0  0  0  0  0  0  0  0  0  0  0
    2.6038   -0.0635    0.0406 C   0  0  0  0  0  0  0  0  0  0  0  0
    3.1333   -0.2125    1.4693 C   0  0  0  0  0  0  0  0  0  0  0  0
    3.0610   -1.2028   -0.8524 C   0  0  0  0  0  0  0  0  0  0  0  0
    2.7530   -2.5321   -0.5216 C   0  0  0  0  0  0  0  0  0  0  0  0
    3.0623   -3.5799   -1.3862 C   0  0  0  0  0  0  0  0  0  0  0  0
    3.6949   -3.2979   -2.5909 C   0  0  0  0  0  0  0  0  0  0  0  0
    4.0438   -1.9962   -2.9248 C   0  0  0  0  0  0  0  0  0  0  0  0
    3.7306   -0.9455   -2.0584 C   0  0  0  0  0  0  0  0  0  0  0  0
    3.9797   -4.2878   -3.4845 O   0  0  0  0  0  0  0  0  0  0  0  0
    0.7109    0.8293    0.6541 H   0  0  0  0  0  0  0  0  0  0  0  0
    0.6271   -0.9212    0.4250 H   0  0  0  0  0  0  0  0  0  0  0  0
    0.6912    0.1449   -0.9817 H   0  0  0  0  0  0  0  0  0  0  0  0
    2.9841    0.8871   -0.3567 H   0  0  0  0  0  0  0  0  0  0  0  0
    2.7867   -1.1381    1.9413 H   0  0  0  0  0  0  0  0  0  0  0  0
    2.7964    0.6190    2.0971 H   0  0  0  0  0  0  0  0  0  0  0  0
    4.2286   -0.2253    1.4803 H   0  0  0  0  0  0  0  0  0  0  0  0
    2.2377   -2.7597    0.4091 H   0  0  0  0  0  0  0  0  0  0  0  0
    2.7875   -4.5902   -1.1073 H   0  0  0  0  0  0  0  0  0  0  0  0
    4.5437   -1.7963   -3.8692 H   0  0  0  0  0  0  0  0  0  0  0  0
    3.9934    0.0699   -2.3442 H   0  0  0  0  0  0  0  0  0  0  0  0
    3.6355   -5.1245   -3.1336 H   0  0  0  0  0  0  0  0  0  0  0  0
  1  2  1  0  0  0  0
  1 11  1  0  0  0  0
  1 12  1  0  0  0  0
  1 13  1  0  0  0  0
  2  3  1  0  0  0  0
  2  4  1  0  0  0  0
  2 14  1  0  0  0  0
  3 15  1  0  0  0  0
  3 16  1  0  0  0  0
  3 17  1  0  0  0  0
  4  5  2  0  0  0  0
  4  9  1  0  0  0  0
  5  6  1  0  0  0  0
  5 18  1  0  0  0  0
  6  7  2  0  0  0  0
  6 19  1  0  0  0  0
  7  8  1  0  0  0  0
  7 10  1  0  0  0  0
  8  9  2  0  0  0  0
  8 20  1  0  0  0  0
  9 21  1  0  0  0  0
 10 22  1  0  0  0  0
M  END
$$$$
