
 OpenBabel07222214443D

 25 25  0  0  0  0  0  0  0  0999 V2000
    1.0561   -0.0896   -0.0488 C   0  0  0  0  0  0  0  0  0  0  0  0
    2.6019   -0.0374   -0.0392 C   0  0  0  0  0  0  0  0  0  0  0  0
    3.0966   -1.2909    0.7133 C   0  0  0  0  0  0  0  0  0  0  0  0
    3.1188   -0.1127   -1.4898 C   0  0  0  0  0  0  0  0  0  0  0  0
    3.0658    1.2776    0.6063 C   0  0  0  0  0  0  0  0  0  0  0  0
    3.9846    1.3303    1.6688 C   0  0  0  0  0  0  0  0  0  0  0  0
    4.3313    2.5472    2.2686 C   0  0  0  0  0  0  0  0  0  0  0  0
    3.7625    3.7266    1.8023 C   0  0  0  0  0  0  0  0  0  0  0  0
    2.8723    3.7098    0.7441 C   0  0  0  0  0  0  0  0  0  0  0  0
    2.5386    2.4986    0.1415 C   0  0  0  0  0  0  0  0  0  0  0  0
    4.0562    4.9348    2.3600 O   0  0  0  0  0  0  0  0  0  0  0  0
    0.6909   -1.0235   -0.4894 H   0  0  0  0  0  0  0  0  0  0  0  0
    0.6131    0.7245   -0.6330 H   0  0  0  0  0  0  0  0  0  0  0  0
    0.6553   -0.0146    0.9691 H   0  0  0  0  0  0  0  0  0  0  0  0
    2.7205   -2.2094    0.2488 H   0  0  0  0  0  0  0  0  0  0  0  0
    2.7563   -1.2878    1.7559 H   0  0  0  0  0  0  0  0  0  0  0  0
    4.1908   -1.3565    0.7143 H   0  0  0  0  0  0  0  0  0  0  0  0
    2.7780   -1.0308   -1.9826 H   0  0  0  0  0  0  0  0  0  0  0  0
    4.2146   -0.1028   -1.5224 H   0  0  0  0  0  0  0  0  0  0  0  0
    2.7661    0.7296   -2.0959 H   0  0  0  0  0  0  0  0  0  0  0  0
    4.4460    0.4291    2.0654 H   0  0  0  0  0  0  0  0  0  0  0  0
    5.0318    2.5470    3.0966 H   0  0  0  0  0  0  0  0  0  0  0  0
    2.4277    4.6336    0.3858 H   0  0  0  0  0  0  0  0  0  0  0  0
    1.8444    2.5217   -0.6939 H   0  0  0  0  0  0  0  0  0  0  0  0
    4.7087    4.7994    3.0641 H   0  0  0  0  0  0  0  0  0  0  0  0
  1  2  1  0  0  0  0
  1 12  1  0  0  0  0
  1 13  1  0  0  0  0
  1 14  1  0  0  0  0
  2  3  1  0  0  0  0
  2  4  1  0  0  0  0
  2  5  1  0  0  0  0
  3 15  1  0  0  0  0
  3 16  1  0  0  0  0
  3 17  1  0  0  0  0
  4 18  1  0  0  0  0
  4 19  1  0  0  0  0
  4 20  1  0  0  0  0
  5  6  2  0  0  0  0
  5 10  1  0  0  0  0
  6  7  1  0  0  0  0
  6 21  1  0  0  0  0
  7  8  2  0  0  0  0
  7 22  1  0  0  0  0
  8  9  1  0  0  0  0
  8 11  1  0  0  0  0
  9 10  2  0  0  0  0
  9 23  1  0  0  0  0
 10 24  1  0  0  0  0
 11 25  1  0  0  0  0
M  END
$$$$
