
 OpenBabel07202215583D

 26 25  0  0  0  0  0  0  0  0999 V2000
    1.0412    0.0164    0.0887 C   0  0  0  0  0  0  0  0  0  0  0  0
    2.5588    0.0150    0.0869 C   0  0  0  0  0  0  0  0  0  0  0  0
    3.1168    1.4360    0.1965 C   0  0  0  0  0  0  0  0  0  0  0  0
    4.6596    1.4992    0.1762 C   0  0  0  0  0  0  0  0  0  0  0  0
    5.2025    0.8822   -1.1119 C   0  0  0  0  0  0  0  0  0  0  0  0
    5.1161    2.9530    0.3157 C   0  0  0  0  0  0  0  0  0  0  0  0
    4.3534    3.9087    0.4209 O   0  0  0  0  0  0  0  0  0  0  0  0
    6.4785    3.0612    0.3390 O   0  0  0  0  0  0  0  0  0  0  0  0
    6.9509    4.4161    0.4564 C   0  0  0  0  0  0  0  0  0  0  0  0
    8.4698    4.4348    0.4563 C   0  0  0  0  0  0  0  0  0  0  0  0
    0.6660   -1.0071   -0.0054 H   0  0  0  0  0  0  0  0  0  0  0  0
    0.6565    0.5972   -0.7561 H   0  0  0  0  0  0  0  0  0  0  0  0
    0.6500    0.4467    1.0146 H   0  0  0  0  0  0  0  0  0  0  0  0
    2.8797   -0.4599   -0.8449 H   0  0  0  0  0  0  0  0  0  0  0  0
    2.9330   -0.5978    0.9145 H   0  0  0  0  0  0  0  0  0  0  0  0
    2.7466    1.8939    1.1237 H   0  0  0  0  0  0  0  0  0  0  0  0
    2.7168    2.0443   -0.6259 H   0  0  0  0  0  0  0  0  0  0  0  0
    5.0397    0.9457    1.0445 H   0  0  0  0  0  0  0  0  0  0  0  0
    4.8312    1.4271   -1.9867 H   0  0  0  0  0  0  0  0  0  0  0  0
    4.9046   -0.1657   -1.2168 H   0  0  0  0  0  0  0  0  0  0  0  0
    6.2948    0.8971   -1.1376 H   0  0  0  0  0  0  0  0  0  0  0  0
    6.5856    4.8547    1.3923 H   0  0  0  0  0  0  0  0  0  0  0  0
    6.5847    5.0080   -0.3907 H   0  0  0  0  0  0  0  0  0  0  0  0
    8.8673    3.8459    1.2889 H   0  0  0  0  0  0  0  0  0  0  0  0
    8.8455    5.4598    0.5451 H   0  0  0  0  0  0  0  0  0  0  0  0
    8.8655    3.9989   -0.4665 H   0  0  0  0  0  0  0  0  0  0  0  0
  1  2  1  0  0  0  0
  1 11  1  0  0  0  0
  1 12  1  0  0  0  0
  1 13  1  0  0  0  0
  2  3  1  0  0  0  0
  2 14  1  0  0  0  0
  2 15  1  0  0  0  0
  3  4  1  0  0  0  0
  3 16  1  0  0  0  0
  3 17  1  0  0  0  0
  4  5  1  0  0  0  0
  4  6  1  0  0  0  0
  4 18  1  0  0  0  0
  5 19  1  0  0  0  0
  5 20  1  0  0  0  0
  5 21  1  0  0  0  0
  6  7  2  0  0  0  0
  6  8  1  0  0  0  0
  8  9  1  0  0  0  0
  9 10  1  0  0  0  0
  9 22  1  0  0  0  0
  9 23  1  0  0  0  0
 10 24  1  0  0  0  0
 10 25  1  0  0  0  0
 10 26  1  0  0  0  0
M  END
$$$$
