
 OpenBabel07202215583D

 18 18  0  0  0  0  0  0  0  0999 V2000
    1.0767   -0.0734    0.0212 O   0  0  0  0  0  0  0  0  0  0  0  0
    2.3046   -0.0855   -0.0031 C   0  0  0  0  0  0  0  0  0  0  0  0
    3.0539    0.9368   -0.7515 C   0  0  0  0  0  0  0  0  0  0  0  0
    4.3949    0.9600   -0.7878 C   0  0  0  0  0  0  0  0  0  0  0  0
    5.1057    2.0547   -1.4657 C   0  0  0  0  0  0  0  0  0  0  0  0
    6.2242    1.8157   -2.2734 C   0  0  0  0  0  0  0  0  0  0  0  0
    6.9192    2.8879   -2.8480 C   0  0  0  0  0  0  0  0  0  0  0  0
    6.4689    4.1958   -2.6678 C   0  0  0  0  0  0  0  0  0  0  0  0
    5.3578    4.4415   -1.8686 C   0  0  0  0  0  0  0  0  0  0  0  0
    4.6955    3.3795   -1.2569 C   0  0  0  0  0  0  0  0  0  0  0  0
    2.8958   -0.8396    0.5373 H   0  0  0  0  0  0  0  0  0  0  0  0
    2.4414    1.6808   -1.2494 H   0  0  0  0  0  0  0  0  0  0  0  0
    5.0047    0.2118   -0.2890 H   0  0  0  0  0  0  0  0  0  0  0  0
    6.5613    0.8022   -2.4793 H   0  0  0  0  0  0  0  0  0  0  0  0
    7.8150    2.7072   -3.4376 H   0  0  0  0  0  0  0  0  0  0  0  0
    6.9826    5.0244   -3.1481 H   0  0  0  0  0  0  0  0  0  0  0  0
    5.0076    5.4571   -1.7074 H   0  0  0  0  0  0  0  0  0  0  0  0
    3.8482    3.5980   -0.6111 H   0  0  0  0  0  0  0  0  0  0  0  0
  1  2  2  0  0  0  0
  2  3  1  0  0  0  0
  2 11  1  0  0  0  0
  3  4  2  0  0  0  0
  3 12  1  0  0  0  0
  4  5  1  0  0  0  0
  4 13  1  0  0  0  0
  5  6  1  0  0  0  0
  5 10  2  0  0  0  0
  6  7  2  0  0  0  0
  6 14  1  0  0  0  0
  7  8  1  0  0  0  0
  7 15  1  0  0  0  0
  8  9  2  0  0  0  0
  8 16  1  0  0  0  0
  9 10  1  0  0  0  0
  9 17  1  0  0  0  0
 10 18  1  0  0  0  0
M  END
$$$$
