
 OpenBabel07122215493D

 18 17  0  0  0  0  0  0  0  0999 V2000
    1.0503    0.0285   -0.1131 C   0  0  0  0  0  0  0  0  0  0  0  0
    2.5862   -0.0003   -0.0708 C   0  0  0  0  0  0  0  0  0  0  0  0
    3.0765    1.4233    0.2319 C   0  0  0  0  0  0  0  0  0  0  0  0
    3.1047   -1.0410    0.9572 C   0  0  0  0  0  0  0  0  0  0  0  0
    2.6269   -2.4628    0.6552 C   0  0  0  0  0  0  0  0  0  0  0  0
    4.9388   -1.0919    1.0418 S   0  0  0  0  0  0  0  0  0  0  0  0
    0.6940    0.7735   -0.8330 H   0  0  0  0  0  0  0  0  0  0  0  0
    0.6350    0.2810    0.8681 H   0  0  0  0  0  0  0  0  0  0  0  0
    0.6321   -0.9331   -0.4242 H   0  0  0  0  0  0  0  0  0  0  0  0
    2.9400   -0.2767   -1.0722 H   0  0  0  0  0  0  0  0  0  0  0  0
    2.7455    1.7501    1.2229 H   0  0  0  0  0  0  0  0  0  0  0  0
    2.6823    2.1316   -0.5057 H   0  0  0  0  0  0  0  0  0  0  0  0
    4.1667    1.5015    0.1926 H   0  0  0  0  0  0  0  0  0  0  0  0
    2.7562   -0.7617    1.9574 H   0  0  0  0  0  0  0  0  0  0  0  0
    2.9304   -2.7872   -0.3462 H   0  0  0  0  0  0  0  0  0  0  0  0
    1.5366   -2.5347    0.7122 H   0  0  0  0  0  0  0  0  0  0  0  0
    3.0176   -3.1808    1.3856 H   0  0  0  0  0  0  0  0  0  0  0  0
    5.1549   -1.3710   -0.2520 H   0  0  0  0  0  0  0  0  0  0  0  0
  1  2  1  0  0  0  0
  1  7  1  0  0  0  0
  1  8  1  0  0  0  0
  1  9  1  0  0  0  0
  2  3  1  0  0  0  0
  2  4  1  0  0  0  0
  2 10  1  0  0  0  0
  3 11  1  0  0  0  0
  3 12  1  0  0  0  0
  3 13  1  0  0  0  0
  4  5  1  0  0  0  0
  4  6  1  0  0  0  0
  4 14  1  0  0  0  0
  5 15  1  0  0  0  0
  5 16  1  0  0  0  0
  5 17  1  0  0  0  0
  6 18  1  0  0  0  0
M  END
$$$$
