
 OpenBabel07202215583D

 29 29  0  0  0  0  0  0  0  0999 V2000
    1.1656    0.4934   -0.1980 C   0  0  0  0  0  0  0  0  0  0  0  0
    2.6220    0.1193    0.0611 C   0  0  0  0  0  0  0  0  0  0  0  0
    3.1281   -0.1469    1.4857 C   0  0  0  0  0  0  0  0  0  0  0  0
    2.9251   -1.0857   -0.7888 C   0  0  0  0  0  0  0  0  0  0  0  0
    2.3560   -2.3786   -0.6128 C   0  0  0  0  0  0  0  0  0  0  0  0
    2.8579   -3.4099   -1.4461 C   0  0  0  0  0  0  0  0  0  0  0  0
    3.7601   -3.1330   -2.4962 C   0  0  0  0  0  0  0  0  0  0  0  0
    4.2645   -1.8496   -2.6797 C   0  0  0  0  0  0  0  0  0  0  0  0
    3.8701   -0.8546   -1.8239 C   0  0  0  0  0  0  0  0  0  0  0  0
    2.4437   -4.7029   -1.1815 O   0  0  0  0  0  0  0  0  0  0  0  0
    3.1312   -5.7394   -1.8800 C   0  0  0  0  0  0  0  0  0  0  0  0
    1.3946   -2.7966    0.2864 O   0  0  0  0  0  0  0  0  0  0  0  0
    0.4926   -2.0275    1.0867 C   0  0  0  0  0  0  0  0  0  0  0  0
    0.6712    0.9131    0.6785 H   0  0  0  0  0  0  0  0  0  0  0  0
    0.6036   -0.3562   -0.5792 H   0  0  0  0  0  0  0  0  0  0  0  0
    1.0608    1.1765   -1.0469 H   0  0  0  0  0  0  0  0  0  0  0  0
    3.1983    0.9957   -0.2742 H   0  0  0  0  0  0  0  0  0  0  0  0
    2.9423   -1.1648    1.8421 H   0  0  0  0  0  0  0  0  0  0  0  0
    2.7184    0.5609    2.2085 H   0  0  0  0  0  0  0  0  0  0  0  0
    4.2237   -0.0644    1.5111 H   0  0  0  0  0  0  0  0  0  0  0  0
    4.0937   -3.8904   -3.1869 H   0  0  0  0  0  0  0  0  0  0  0  0
    4.9749   -1.6540   -3.4809 H   0  0  0  0  0  0  0  0  0  0  0  0
    4.2988    0.1433   -1.9631 H   0  0  0  0  0  0  0  0  0  0  0  0
    2.8319   -6.7025   -1.4591 H   0  0  0  0  0  0  0  0  0  0  0  0
    4.2211   -5.6623   -1.7694 H   0  0  0  0  0  0  0  0  0  0  0  0
    2.8474   -5.7350   -2.9382 H   0  0  0  0  0  0  0  0  0  0  0  0
   -0.0718   -2.7049    1.7359 H   0  0  0  0  0  0  0  0  0  0  0  0
   -0.2964   -1.5253    0.5168 H   0  0  0  0  0  0  0  0  0  0  0  0
    0.9791   -1.3309    1.7673 H   0  0  0  0  0  0  0  0  0  0  0  0
  1  2  1  0  0  0  0
  1 14  1  0  0  0  0
  1 15  1  0  0  0  0
  1 16  1  0  0  0  0
  2  3  1  0  0  0  0
  2  4  1  0  0  0  0
  2 17  1  0  0  0  0
  3 18  1  0  0  0  0
  3 19  1  0  0  0  0
  3 20  1  0  0  0  0
  4  5  2  0  0  0  0
  4  9  1  0  0  0  0
  5  6  1  0  0  0  0
  5 12  1  0  0  0  0
  6  7  2  0  0  0  0
  6 10  1  0  0  0  0
  7  8  1  0  0  0  0
  7 21  1  0  0  0  0
  8  9  2  0  0  0  0
  8 22  1  0  0  0  0
  9 23  1  0  0  0  0
 10 11  1  0  0  0  0
 11 24  1  0  0  0  0
 11 25  1  0  0  0  0
 11 26  1  0  0  0  0
 12 13  1  0  0  0  0
 13 27  1  0  0  0  0
 13 28  1  0  0  0  0
 13 29  1  0  0  0  0
M  END
$$$$
