
 OpenBabel07222214433D

 29 28  0  0  0  0  0  0  0  0999 V2000
    1.0916    0.0100   -0.0166 C   0  0  0  0  0  0  0  0  0  0  0  0
    2.5871    0.0125   -0.0160 C   0  0  0  0  0  0  0  0  0  0  0  0
    3.3077   -1.3074   -0.0785 C   0  0  0  0  0  0  0  0  0  0  0  0
    3.2627    1.1786    0.0390 C   0  0  0  0  0  0  0  0  0  0  0  0
    4.7565    1.2094    0.0405 C   0  0  0  0  0  0  0  0  0  0  0  0
    5.3467    2.6079    0.1085 C   0  0  0  0  0  0  0  0  0  0  0  0
    6.8640    2.6499    0.1140 C   0  0  0  0  0  0  0  0  0  0  0  0
    7.6722    1.3760    0.0483 C   0  0  0  0  0  0  0  0  0  0  0  0
    7.4995    3.8392    0.1659 C   0  0  0  0  0  0  0  0  0  0  0  0
    6.7915    5.1567    0.2226 C   0  0  0  0  0  0  0  0  0  0  0  0
    7.7466    6.2024    0.2599 O   0  0  0  0  0  0  0  0  0  0  0  0
    0.6904   -1.0060   -0.0645 H   0  0  0  0  0  0  0  0  0  0  0  0
    0.7106    0.5608   -0.8828 H   0  0  0  0  0  0  0  0  0  0  0  0
    0.7102    0.4770    0.8973 H   0  0  0  0  0  0  0  0  0  0  0  0
    2.6181   -2.1535   -0.1185 H   0  0  0  0  0  0  0  0  0  0  0  0
    3.9415   -1.4425    0.8056 H   0  0  0  0  0  0  0  0  0  0  0  0
    3.9413   -1.3584   -0.9716 H   0  0  0  0  0  0  0  0  0  0  0  0
    2.7244    2.1218    0.0823 H   0  0  0  0  0  0  0  0  0  0  0  0
    5.1096    0.7264   -0.8790 H   0  0  0  0  0  0  0  0  0  0  0  0
    5.1094    0.6404    0.9095 H   0  0  0  0  0  0  0  0  0  0  0  0
    4.9730    3.1016    1.0157 H   0  0  0  0  0  0  0  0  0  0  0  0
    4.9770    3.1840   -0.7508 H   0  0  0  0  0  0  0  0  0  0  0  0
    7.0720    0.4649    0.0046 H   0  0  0  0  0  0  0  0  0  0  0  0
    8.3028    1.2778    0.9373 H   0  0  0  0  0  0  0  0  0  0  0  0
    8.2999    1.3659   -0.8481 H   0  0  0  0  0  0  0  0  0  0  0  0
    8.5867    3.8587    0.1497 H   0  0  0  0  0  0  0  0  0  0  0  0
    6.1648    5.2296    1.1176 H   0  0  0  0  0  0  0  0  0  0  0  0
    6.1689    5.3006   -0.6656 H   0  0  0  0  0  0  0  0  0  0  0  0
    8.2395    6.1003    1.0905 H   0  0  0  0  0  0  0  0  0  0  0  0
  1  2  1  0  0  0  0
  1 12  1  0  0  0  0
  1 13  1  0  0  0  0
  1 14  1  0  0  0  0
  2  3  1  0  0  0  0
  2  4  2  0  0  0  0
  3 15  1  0  0  0  0
  3 16  1  0  0  0  0
  3 17  1  0  0  0  0
  4  5  1  0  0  0  0
  4 18  1  0  0  0  0
  5  6  1  0  0  0  0
  5 19  1  0  0  0  0
  5 20  1  0  0  0  0
  6  7  1  0  0  0  0
  6 21  1  0  0  0  0
  6 22  1  0  0  0  0
  7  8  1  0  0  0  0
  7  9  2  0  0  0  0
  8 23  1  0  0  0  0
  8 24  1  0  0  0  0
  8 25  1  0  0  0  0
  9 10  1  0  0  0  0
  9 26  1  0  0  0  0
 10 11  1  0  0  0  0
 10 27  1  0  0  0  0
 10 28  1  0  0  0  0
 11 29  1  0  0  0  0
M  END
$$$$
