
 OpenBabel07222214433D

 24 24  0  0  0  0  0  0  0  0999 V2000
    0.9831   -0.0988   -0.0256 C   0  0  0  0  0  0  0  0  0  0  0  0
    2.4782   -0.0462    0.0040 C   0  0  0  0  0  0  0  0  0  0  0  0
    3.1161    0.8727    0.5095 O   0  0  0  0  0  0  0  0  0  0  0  0
    3.0221   -1.1457   -0.5961 O   0  0  0  0  0  0  0  0  0  0  0  0
    4.4545   -1.1260   -0.5724 C   0  0  0  0  0  0  0  0  0  0  0  0
    5.0551   -2.3709   -1.2332 C   0  0  0  0  0  0  0  0  0  0  0  0
    6.5719   -2.3783   -1.2648 C   0  0  0  0  0  0  0  0  0  0  0  0
    7.3386   -1.3296   -0.7310 C   0  0  0  0  0  0  0  0  0  0  0  0
    8.7185   -1.2811   -0.9116 C   0  0  0  0  0  0  0  0  0  0  0  0
    9.3714   -2.3325   -1.5415 C   0  0  0  0  0  0  0  0  0  0  0  0
    8.6368   -3.4115   -2.0298 C   0  0  0  0  0  0  0  0  0  0  0  0
    7.2442   -3.4316   -1.9020 C   0  0  0  0  0  0  0  0  0  0  0  0
    0.5861    0.7957    0.4656 H   0  0  0  0  0  0  0  0  0  0  0  0
    0.6268   -0.9755    0.5201 H   0  0  0  0  0  0  0  0  0  0  0  0
    0.6264   -0.1098   -1.0579 H   0  0  0  0  0  0  0  0  0  0  0  0
    4.7879   -1.0791    0.4720 H   0  0  0  0  0  0  0  0  0  0  0  0
    4.8001   -0.2315   -1.1079 H   0  0  0  0  0  0  0  0  0  0  0  0
    4.6887   -2.4264   -2.2674 H   0  0  0  0  0  0  0  0  0  0  0  0
    4.6889   -3.2721   -0.7262 H   0  0  0  0  0  0  0  0  0  0  0  0
    6.8840   -0.5126   -0.1773 H   0  0  0  0  0  0  0  0  0  0  0  0
    9.2728   -0.4117   -0.5685 H   0  0  0  0  0  0  0  0  0  0  0  0
   10.4519   -2.3082   -1.6475 H   0  0  0  0  0  0  0  0  0  0  0  0
    9.1493   -4.2278   -2.5319 H   0  0  0  0  0  0  0  0  0  0  0  0
    6.6880   -4.2708   -2.3152 H   0  0  0  0  0  0  0  0  0  0  0  0
  1  2  1  0  0  0  0
  1 13  1  0  0  0  0
  1 14  1  0  0  0  0
  1 15  1  0  0  0  0
  2  3  2  0  0  0  0
  2  4  1  0  0  0  0
  4  5  1  0  0  0  0
  5  6  1  0  0  0  0
  5 16  1  0  0  0  0
  5 17  1  0  0  0  0
  6  7  1  0  0  0  0
  6 18  1  0  0  0  0
  6 19  1  0  0  0  0
  7  8  2  0  0  0  0
  7 12  1  0  0  0  0
  8  9  1  0  0  0  0
  8 20  1  0  0  0  0
  9 10  2  0  0  0  0
  9 21  1  0  0  0  0
 10 11  1  0  0  0  0
 10 22  1  0  0  0  0
 11 12  2  0  0  0  0
 11 23  1  0  0  0  0
 12 24  1  0  0  0  0
M  END
$$$$
