
 OpenBabel07222214433D

 17 16  0  0  0  0  0  0  0  0999 V2000
    1.0733   -0.0390   -0.0351 C   0  0  0  0  0  0  0  0  0  0  0  0
    2.5928   -0.0297   -0.0411 C   0  0  0  0  0  0  0  0  0  0  0  0
    3.0975    1.1806   -0.8162 C   0  0  0  0  0  0  0  0  0  0  0  0
    4.6164    1.2479   -0.8594 C   0  0  0  0  0  0  0  0  0  0  0  0
    5.1921    2.4268   -1.6144 C   0  0  0  0  0  0  0  0  0  0  0  0
    4.3215    3.2924   -2.1688 O   0  0  0  0  0  0  0  0  0  0  0  0
    6.4015    2.5956   -1.7225 O   0  0  0  0  0  0  0  0  0  0  0  0
    0.6971   -0.9031    0.5183 H   0  0  0  0  0  0  0  0  0  0  0  0
    0.6826   -0.0866   -1.0571 H   0  0  0  0  0  0  0  0  0  0  0  0
    0.6826    0.8694    0.4355 H   0  0  0  0  0  0  0  0  0  0  0  0
    2.9646   -0.9532   -0.4993 H   0  0  0  0  0  0  0  0  0  0  0  0
    2.9646    0.0003    0.9894 H   0  0  0  0  0  0  0  0  0  0  0  0
    2.7050    2.0928   -0.3499 H   0  0  0  0  0  0  0  0  0  0  0  0
    2.7050    1.1385   -1.8398 H   0  0  0  0  0  0  0  0  0  0  0  0
    5.0049    0.3366   -1.3300 H   0  0  0  0  0  0  0  0  0  0  0  0
    5.0049    1.2943    0.1653 H   0  0  0  0  0  0  0  0  0  0  0  0
    3.3716    3.1145   -2.0549 H   0  0  0  0  0  0  0  0  0  0  0  0
  1  2  1  0  0  0  0
  1  8  1  0  0  0  0
  1  9  1  0  0  0  0
  1 10  1  0  0  0  0
  2  3  1  0  0  0  0
  2 11  1  0  0  0  0
  2 12  1  0  0  0  0
  3  4  1  0  0  0  0
  3 13  1  0  0  0  0
  3 14  1  0  0  0  0
  4  5  1  0  0  0  0
  4 15  1  0  0  0  0
  4 16  1  0  0  0  0
  5  6  1  0  0  0  0
  5  7  2  0  0  0  0
  6 17  1  0  0  0  0
M  END
$$$$
