
 OpenBabel07222214433D

 21 20  0  0  0  0  0  0  0  0999 V2000
    1.0492    0.0335   -0.0305 C   0  0  0  0  0  0  0  0  0  0  0  0
    2.5678    0.0434   -0.0402 C   0  0  0  0  0  0  0  0  0  0  0  0
    3.1001    1.0644   -1.0421 C   0  0  0  0  0  0  0  0  0  0  0  0
    4.6259    1.0764   -1.0538 C   0  0  0  0  0  0  0  0  0  0  0  0
    5.1581    2.0955   -2.0553 C   0  0  0  0  0  0  0  0  0  0  0  0
    6.6793    2.1060   -2.0683 C   0  0  0  0  0  0  0  0  0  0  0  0
    7.1464    3.0686   -3.0028 O   0  0  0  0  0  0  0  0  0  0  0  0
    0.6784   -0.7010    0.6903 H   0  0  0  0  0  0  0  0  0  0  0  0
    0.6554   -0.2268   -1.0182 H   0  0  0  0  0  0  0  0  0  0  0  0
    0.6553    1.0161    0.2481 H   0  0  0  0  0  0  0  0  0  0  0  0
    2.9363   -0.9572   -0.2949 H   0  0  0  0  0  0  0  0  0  0  0  0
    2.9363    0.2792    0.9651 H   0  0  0  0  0  0  0  0  0  0  0  0
    2.7257    2.0631   -0.7857 H   0  0  0  0  0  0  0  0  0  0  0  0
    2.7257    0.8267   -2.0454 H   0  0  0  0  0  0  0  0  0  0  0  0
    5.0001    0.0777   -1.3103 H   0  0  0  0  0  0  0  0  0  0  0  0
    5.0003    1.3146   -0.0508 H   0  0  0  0  0  0  0  0  0  0  0  0
    4.7870    3.0993   -1.8131 H   0  0  0  0  0  0  0  0  0  0  0  0
    4.7825    1.8714   -3.0616 H   0  0  0  0  0  0  0  0  0  0  0  0
    7.0798    1.1261   -2.3476 H   0  0  0  0  0  0  0  0  0  0  0  0
    7.0735    2.3696   -1.0822 H   0  0  0  0  0  0  0  0  0  0  0  0
    6.7998    2.8199   -3.8752 H   0  0  0  0  0  0  0  0  0  0  0  0
  1  2  1  0  0  0  0
  1  8  1  0  0  0  0
  1  9  1  0  0  0  0
  1 10  1  0  0  0  0
  2  3  1  0  0  0  0
  2 11  1  0  0  0  0
  2 12  1  0  0  0  0
  3  4  1  0  0  0  0
  3 13  1  0  0  0  0
  3 14  1  0  0  0  0
  4  5  1  0  0  0  0
  4 15  1  0  0  0  0
  4 16  1  0  0  0  0
  5  6  1  0  0  0  0
  5 17  1  0  0  0  0
  5 18  1  0  0  0  0
  6  7  1  0  0  0  0
  6 19  1  0  0  0  0
  6 20  1  0  0  0  0
  7 21  1  0  0  0  0
M  END
$$$$
