
 OpenBabel07222214443D

 39 39  0  0  0  0  0  0  0  0999 V2000
    2.6183    1.0282    0.0879 C   0  0  0  0  0  0  0  0  0  0  0  0
    1.2819    0.3587    0.0247 C   0  0  0  0  0  0  0  0  0  0  0  0
    0.0634    1.1150   -0.0144 C   0  0  0  0  0  0  0  0  0  0  0  0
   -1.1965    0.3993   -0.0076 C   0  0  0  0  0  0  0  0  0  0  0  0
   -1.2243   -1.0539   -0.0045 C   0  0  0  0  0  0  0  0  0  0  0  0
    0.0423   -1.8394   -0.0025 C   0  0  0  0  0  0  0  0  0  0  0  0
    1.3258   -1.1008    0.0096 C   0  0  0  0  0  0  0  0  0  0  0  0
    2.8654   -1.7175    0.0053 N   0  3  0  0  0  0  0  0  0  0  0  0
    3.1353   -2.8936    0.0164 O   0  0  0  0  0  0  0  0  0  0  0  0
    3.8440   -0.9504   -0.0151 O   0  5  0  0  0  0  0  0  0  0  0  0
   -0.1054   -3.3834   -0.0091 C   0  0  0  0  0  0  0  0  0  0  0  0
   -0.7159   -3.8701    1.3376 C   0  0  0  0  0  0  0  0  0  0  0  0
   -0.7075   -3.8588   -1.3634 C   0  0  0  0  0  0  0  0  0  0  0  0
    1.1845   -4.1634   -0.0086 C   0  0  0  0  0  0  0  0  0  0  0  0
   -2.6668   -1.7352   -0.0131 N   0  3  0  0  0  0  0  0  0  0  0  0
   -3.6853   -1.0397   -0.0214 O   0  0  0  0  0  0  0  0  0  0  0  0
   -2.7952   -2.9566   -0.0137 O   0  5  0  0  0  0  0  0  0  0  0  0
   -2.5422    1.1202   -0.0029 C   0  0  0  0  0  0  0  0  0  0  0  0
    0.0442    2.6694   -0.0623 C   0  0  0  0  0  0  0  0  0  0  0  0
   -1.0254    3.2813   -0.0327 O   0  0  0  0  0  0  0  0  0  0  0  0
    1.2058    3.6244   -0.1323 C   0  0  0  0  0  0  0  0  0  0  0  0
    2.7476    2.0404    0.3593 H   0  0  0  0  0  0  0  0  0  0  0  0
    3.1287    0.8817   -0.8763 H   0  0  0  0  0  0  0  0  0  0  0  0
    3.1181    0.6578    0.9877 H   0  0  0  0  0  0  0  0  0  0  0  0
   -1.6967   -3.5084    1.6289 H   0  0  0  0  0  0  0  0  0  0  0  0
   -0.0887   -3.5313    2.1745 H   0  0  0  0  0  0  0  0  0  0  0  0
   -0.7649   -4.9628    1.3603 H   0  0  0  0  0  0  0  0  0  0  0  0
   -1.6864   -3.4944   -1.6577 H   0  0  0  0  0  0  0  0  0  0  0  0
   -0.7568   -4.9513   -1.3953 H   0  0  0  0  0  0  0  0  0  0  0  0
   -0.0745   -3.5137   -2.1934 H   0  0  0  0  0  0  0  0  0  0  0  0
    1.6978   -3.9356    0.9338 H   0  0  0  0  0  0  0  0  0  0  0  0
    1.7070   -3.9208   -0.9421 H   0  0  0  0  0  0  0  0  0  0  0  0
    1.1018   -5.2484   -0.0172 H   0  0  0  0  0  0  0  0  0  0  0  0
   -2.6032    2.1924    0.0267 H   0  0  0  0  0  0  0  0  0  0  0  0
   -3.0941    0.8476    0.9060 H   0  0  0  0  0  0  0  0  0  0  0  0
   -3.0828    0.8774   -0.9263 H   0  0  0  0  0  0  0  0  0  0  0  0
    2.1998    3.3388   -0.4084 H   0  0  0  0  0  0  0  0  0  0  0  0
    1.2424    4.1681    0.8183 H   0  0  0  0  0  0  0  0  0  0  0  0
    0.9960    4.2993   -0.9638 H   0  0  0  0  0  0  0  0  0  0  0  0
  1  2  1  0  0  0  0
  1 22  1  0  0  0  0
  1 23  1  0  0  0  0
  1 24  1  0  0  0  0
  2  3  2  0  0  0  0
  2  7  1  0  0  0  0
  3  4  1  0  0  0  0
  3 19  1  0  0  0  0
  4  5  2  0  0  0  0
  4 18  1  0  0  0  0
  5  6  1  0  0  0  0
  5 15  1  0  0  0  0
  6  7  2  0  0  0  0
  6 11  1  0  0  0  0
  7  8  1  0  0  0  0
  8  9  2  0  0  0  0
  8 10  1  0  0  0  0
 11 12  1  0  0  0  0
 11 13  1  0  0  0  0
 11 14  1  0  0  0  0
 12 25  1  0  0  0  0
 12 26  1  0  0  0  0
 12 27  1  0  0  0  0
 13 28  1  0  0  0  0
 13 29  1  0  0  0  0
 13 30  1  0  0  0  0
 14 31  1  0  0  0  0
 14 32  1  0  0  0  0
 14 33  1  0  0  0  0
 15 16  2  0  0  0  0
 15 17  1  0  0  0  0
 18 34  1  0  0  0  0
 18 35  1  0  0  0  0
 18 36  1  0  0  0  0
 19 20  2  0  0  0  0
 19 21  1  0  0  0  0
 21 37  1  0  0  0  0
 21 38  1  0  0  0  0
 21 39  1  0  0  0  0
M  CHG  4   8   1  10  -1  15   1  17  -1
M  END
$$$$
