
 OpenBabel07222214433D

 27 26  0  0  0  0  0  0  0  0999 V2000
    0.8945    0.0778   -0.0453 C   0  0  0  0  0  0  0  0  0  0  0  0
    2.4124    0.0704   -0.0365 C   0  0  0  0  0  0  0  0  0  0  0  0
    2.9421   -0.8528    1.0551 C   0  0  0  0  0  0  0  0  0  0  0  0
    4.4660   -0.8634    1.0674 C   0  0  0  0  0  0  0  0  0  0  0  0
    4.9874   -1.7887    2.1614 C   0  0  0  0  0  0  0  0  0  0  0  0
    6.5112   -1.7988    2.1733 C   0  0  0  0  0  0  0  0  0  0  0  0
    7.0410   -2.7202    3.2641 C   0  0  0  0  0  0  0  0  0  0  0  0
    8.5614   -2.7277    3.2761 C   0  0  0  0  0  0  0  0  0  0  0  0
    9.0291   -3.5982    4.2965 O   0  0  0  0  0  0  0  0  0  0  0  0
    0.5225    0.7419   -0.8305 H   0  0  0  0  0  0  0  0  0  0  0  0
    0.5020    0.4276    0.9149 H   0  0  0  0  0  0  0  0  0  0  0  0
    0.5020   -0.9271   -0.2308 H   0  0  0  0  0  0  0  0  0  0  0  0
    2.7816    1.0899    0.1250 H   0  0  0  0  0  0  0  0  0  0  0  0
    2.7816   -0.2581   -1.0151 H   0  0  0  0  0  0  0  0  0  0  0  0
    2.5684   -1.8713    0.8928 H   0  0  0  0  0  0  0  0  0  0  0  0
    2.5684   -0.5236    2.0325 H   0  0  0  0  0  0  0  0  0  0  0  0
    4.8428    0.1535    1.2321 H   0  0  0  0  0  0  0  0  0  0  0  0
    4.8428   -1.1945    0.0919 H   0  0  0  0  0  0  0  0  0  0  0  0
    4.6107   -2.8057    1.9970 H   0  0  0  0  0  0  0  0  0  0  0  0
    4.6107   -1.4576    3.1370 H   0  0  0  0  0  0  0  0  0  0  0  0
    6.8846   -0.7802    2.3356 H   0  0  0  0  0  0  0  0  0  0  0  0
    6.8848   -2.1284    1.1961 H   0  0  0  0  0  0  0  0  0  0  0  0
    6.6693   -3.7417    3.1153 H   0  0  0  0  0  0  0  0  0  0  0  0
    6.6647   -2.4032    4.2448 H   0  0  0  0  0  0  0  0  0  0  0  0
    8.9605   -1.7254    3.4623 H   0  0  0  0  0  0  0  0  0  0  0  0
    8.9546   -3.0814    2.3183 H   0  0  0  0  0  0  0  0  0  0  0  0
    8.6795   -3.2710    5.1406 H   0  0  0  0  0  0  0  0  0  0  0  0
  1  2  1  0  0  0  0
  1 10  1  0  0  0  0
  1 11  1  0  0  0  0
  1 12  1  0  0  0  0
  2  3  1  0  0  0  0
  2 13  1  0  0  0  0
  2 14  1  0  0  0  0
  3  4  1  0  0  0  0
  3 15  1  0  0  0  0
  3 16  1  0  0  0  0
  4  5  1  0  0  0  0
  4 17  1  0  0  0  0
  4 18  1  0  0  0  0
  5  6  1  0  0  0  0
  5 19  1  0  0  0  0
  5 20  1  0  0  0  0
  6  7  1  0  0  0  0
  6 21  1  0  0  0  0
  6 22  1  0  0  0  0
  7  8  1  0  0  0  0
  7 23  1  0  0  0  0
  7 24  1  0  0  0  0
  8  9  1  0  0  0  0
  8 25  1  0  0  0  0
  8 26  1  0  0  0  0
  9 27  1  0  0  0  0
M  END
$$$$
