
 OpenBabel07122215493D

 29 28  0  0  0  0  0  0  0  0999 V2000
    1.0464    0.0253   -0.0871 C   0  0  0  0  0  0  0  0  0  0  0  0
    2.5630    0.0202   -0.0804 C   0  0  0  0  0  0  0  0  0  0  0  0
    3.0881   -0.8480    1.0559 C   0  0  0  0  0  0  0  0  0  0  0  0
    4.6100   -0.8559    1.0662 C   0  0  0  0  0  0  0  0  0  0  0  0
    5.1306   -1.7248    2.2035 C   0  0  0  0  0  0  0  0  0  0  0  0
    6.6545   -1.7301    2.2105 C   0  0  0  0  0  0  0  0  0  0  0  0
    7.1870   -2.5980    3.3464 C   0  0  0  0  0  0  0  0  0  0  0  0
    8.6881   -2.6148    3.3685 C   0  0  0  0  0  0  0  0  0  0  0  0
    9.3664   -3.3163    4.2866 C   0  0  0  0  0  0  0  0  0  0  0  0
   10.8407   -3.3295    4.3039 C   0  0  0  0  0  0  0  0  0  0  0  0
   11.4580   -3.9724    5.1453 O   0  0  0  0  0  0  0  0  0  0  0  0
    0.6725    0.6490   -0.9034 H   0  0  0  0  0  0  0  0  0  0  0  0
    0.6567    0.4209    0.8563 H   0  0  0  0  0  0  0  0  0  0  0  0
    0.6567   -0.9889   -0.2209 H   0  0  0  0  0  0  0  0  0  0  0  0
    2.9333    1.0460    0.0314 H   0  0  0  0  0  0  0  0  0  0  0  0
    2.9333   -0.3573   -1.0407 H   0  0  0  0  0  0  0  0  0  0  0  0
    2.7142   -1.8732    0.9439 H   0  0  0  0  0  0  0  0  0  0  0  0
    2.7141   -0.4705    2.0157 H   0  0  0  0  0  0  0  0  0  0  0  0
    4.9857    0.1684    1.1801 H   0  0  0  0  0  0  0  0  0  0  0  0
    4.9857   -1.2349    0.1079 H   0  0  0  0  0  0  0  0  0  0  0  0
    4.7542   -2.7489    2.0897 H   0  0  0  0  0  0  0  0  0  0  0  0
    4.7542   -1.3458    3.1617 H   0  0  0  0  0  0  0  0  0  0  0  0
    7.0236   -0.7024    2.3195 H   0  0  0  0  0  0  0  0  0  0  0  0
    7.0236   -2.1054    1.2476 H   0  0  0  0  0  0  0  0  0  0  0  0
    6.8110   -3.6214    3.2250 H   0  0  0  0  0  0  0  0  0  0  0  0
    6.8110   -2.2119    4.3019 H   0  0  0  0  0  0  0  0  0  0  0  0
    9.2137   -2.0364    2.6114 H   0  0  0  0  0  0  0  0  0  0  0  0
    8.8730   -3.9021    5.0533 H   0  0  0  0  0  0  0  0  0  0  0  0
   11.3486   -2.7358    3.5268 H   0  0  0  0  0  0  0  0  0  0  0  0
  1  2  1  0  0  0  0
  1 12  1  0  0  0  0
  1 13  1  0  0  0  0
  1 14  1  0  0  0  0
  2  3  1  0  0  0  0
  2 15  1  0  0  0  0
  2 16  1  0  0  0  0
  3  4  1  0  0  0  0
  3 17  1  0  0  0  0
  3 18  1  0  0  0  0
  4  5  1  0  0  0  0
  4 19  1  0  0  0  0
  4 20  1  0  0  0  0
  5  6  1  0  0  0  0
  5 21  1  0  0  0  0
  5 22  1  0  0  0  0
  6  7  1  0  0  0  0
  6 23  1  0  0  0  0
  6 24  1  0  0  0  0
  7  8  1  0  0  0  0
  7 25  1  0  0  0  0
  7 26  1  0  0  0  0
  8  9  2  0  0  0  0
  8 27  1  0  0  0  0
  9 10  1  0  0  0  0
  9 28  1  0  0  0  0
 10 11  2  0  0  0  0
 10 29  1  0  0  0  0
M  END
$$$$
