
 OpenBabel07222214433D

 21 21  0  0  0  0  0  0  0  0999 V2000
    1.1381   -0.0465   -0.0967 C   0  0  0  0  0  0  0  0  0  0  0  0
    2.6373   -0.0645   -0.0318 C   0  0  0  0  0  0  0  0  0  0  0  0
    3.2700   -0.2631    1.0002 O   0  0  0  0  0  0  0  0  0  0  0  0
    3.1875    0.1658   -1.2551 O   0  0  0  0  0  0  0  0  0  0  0  0
    4.6211    0.1561   -1.2485 C   0  0  0  0  0  0  0  0  0  0  0  0
    5.1509    0.4525   -2.6323 C   0  0  0  0  0  0  0  0  0  0  0  0
    5.6880   -0.5606   -3.4405 C   0  0  0  0  0  0  0  0  0  0  0  0
    6.2762   -0.2489   -4.6702 C   0  0  0  0  0  0  0  0  0  0  0  0
    6.2583    1.0621   -5.1423 C   0  0  0  0  0  0  0  0  0  0  0  0
    5.6992    2.0719   -4.3626 C   0  0  0  0  0  0  0  0  0  0  0  0
    5.1570    1.7705   -3.1115 C   0  0  0  0  0  0  0  0  0  0  0  0
    0.7347   -0.2448    0.9022 H   0  0  0  0  0  0  0  0  0  0  0  0
    0.7767   -0.8286   -0.7689 H   0  0  0  0  0  0  0  0  0  0  0  0
    0.7809    0.9351   -0.4177 H   0  0  0  0  0  0  0  0  0  0  0  0
    4.9905   -0.8189   -0.9065 H   0  0  0  0  0  0  0  0  0  0  0  0
    5.0007    0.9237   -0.5608 H   0  0  0  0  0  0  0  0  0  0  0  0
    5.6671   -1.5983   -3.1149 H   0  0  0  0  0  0  0  0  0  0  0  0
    6.7578   -1.0268   -5.2578 H   0  0  0  0  0  0  0  0  0  0  0  0
    6.6778    1.2960   -6.1175 H   0  0  0  0  0  0  0  0  0  0  0  0
    5.6990    3.0978   -4.7211 H   0  0  0  0  0  0  0  0  0  0  0  0
    4.7457    2.5724   -2.5028 H   0  0  0  0  0  0  0  0  0  0  0  0
  1  2  1  0  0  0  0
  1 12  1  0  0  0  0
  1 13  1  0  0  0  0
  1 14  1  0  0  0  0
  2  3  2  0  0  0  0
  2  4  1  0  0  0  0
  4  5  1  0  0  0  0
  5  6  1  0  0  0  0
  5 15  1  0  0  0  0
  5 16  1  0  0  0  0
  6  7  1  0  0  0  0
  6 11  2  0  0  0  0
  7  8  2  0  0  0  0
  7 17  1  0  0  0  0
  8  9  1  0  0  0  0
  8 18  1  0  0  0  0
  9 10  2  0  0  0  0
  9 19  1  0  0  0  0
 10 11  1  0  0  0  0
 10 20  1  0  0  0  0
 11 21  1  0  0  0  0
M  END
$$$$
