
 OpenBabel07202215583D

 24 24  0  0  0  0  0  0  0  0999 V2000
   -2.5688    0.5703    0.0038 C   0  0  0  0  0  0  0  0  0  0  0  0
   -1.2118   -0.0713   -0.0074 C   0  0  0  0  0  0  0  0  0  0  0  0
   -1.1074   -1.4676   -0.0190 C   0  0  0  0  0  0  0  0  0  0  0  0
    0.1377   -2.0991    0.0031 C   0  0  0  0  0  0  0  0  0  0  0  0
    1.2956   -1.3029    0.0177 C   0  0  0  0  0  0  0  0  0  0  0  0
    1.2166    0.1044    0.0048 C   0  0  0  0  0  0  0  0  0  0  0  0
   -0.0492    0.7042    0.0019 C   0  0  0  0  0  0  0  0  0  0  0  0
   -0.2214    2.0612    0.0034 O   0  0  0  0  0  0  0  0  0  0  0  0
    2.4785    0.9170   -0.0218 C   0  0  0  0  0  0  0  0  0  0  0  0
    0.2760   -3.5906    0.0122 C   0  0  0  0  0  0  0  0  0  0  0  0
    1.4026   -4.0926    0.0392 O   0  0  0  0  0  0  0  0  0  0  0  0
   -0.9443   -4.4833   -0.0086 C   0  0  0  0  0  0  0  0  0  0  0  0
   -3.3656   -0.1805   -0.0237 H   0  0  0  0  0  0  0  0  0  0  0  0
   -2.6892    1.2157   -0.8712 H   0  0  0  0  0  0  0  0  0  0  0  0
   -2.6966    1.1571    0.9185 H   0  0  0  0  0  0  0  0  0  0  0  0
   -2.0319   -2.0294   -0.0438 H   0  0  0  0  0  0  0  0  0  0  0  0
    2.2732   -1.7861    0.0340 H   0  0  0  0  0  0  0  0  0  0  0  0
    0.6373    2.5090    0.0213 H   0  0  0  0  0  0  0  0  0  0  0  0
    3.3705    0.2828   -0.0180 H   0  0  0  0  0  0  0  0  0  0  0  0
    2.5292    1.5699    0.8555 H   0  0  0  0  0  0  0  0  0  0  0  0
    2.5091    1.5268   -0.9310 H   0  0  0  0  0  0  0  0  0  0  0  0
   -1.8931   -3.9536   -0.0327 H   0  0  0  0  0  0  0  0  0  0  0  0
   -0.9466   -5.1048    0.8910 H   0  0  0  0  0  0  0  0  0  0  0  0
   -0.9075   -5.1160   -0.8996 H   0  0  0  0  0  0  0  0  0  0  0  0
  1  2  1  0  0  0  0
  1 13  1  0  0  0  0
  1 14  1  0  0  0  0
  1 15  1  0  0  0  0
  2  3  2  0  0  0  0
  2  7  1  0  0  0  0
  3  4  1  0  0  0  0
  3 16  1  0  0  0  0
  4  5  2  0  0  0  0
  4 10  1  0  0  0  0
  5  6  1  0  0  0  0
  5 17  1  0  0  0  0
  6  7  2  0  0  0  0
  6  9  1  0  0  0  0
  7  8  1  0  0  0  0
  8 18  1  0  0  0  0
  9 19  1  0  0  0  0
  9 20  1  0  0  0  0
  9 21  1  0  0  0  0
 10 11  2  0  0  0  0
 10 12  1  0  0  0  0
 12 22  1  0  0  0  0
 12 23  1  0  0  0  0
 12 24  1  0  0  0  0
M  END
$$$$
