
 OpenBabel07222214433D

 33 32  0  0  0  0  0  0  0  0999 V2000
    1.7103   -0.7052    1.2125 C   0  0  0  0  0  0  0  0  0  0  0  0
    2.9811   -0.1913    1.5630 O   0  0  0  0  0  0  0  0  0  0  0  0
    2.8779    1.2217    1.6177 C   0  0  0  0  0  0  0  0  0  0  0  0
    0.5783    0.4431   -1.2019 C   0  0  0  0  0  0  0  0  0  0  0  0
    2.0653    0.4649   -1.4240 O   0  0  0  0  0  0  0  0  0  0  0  0
    2.9422    1.5697   -1.2204 C   0  0  0  0  0  0  0  0  0  0  0  0
    4.3838    1.3595   -0.9241 C   0  0  0  0  0  0  0  0  0  0  0  0
    5.2674    2.4330   -0.4797 C   0  0  0  0  0  0  0  0  0  0  0  0
    6.7833    2.2931   -0.1403 C   0  0  0  0  0  0  0  0  0  0  0  0
    7.5666    3.6233   -0.0874 C   0  0  0  0  0  0  0  0  0  0  0  0
    8.8671    3.8029   -0.0877 C   0  0  0  0  0  0  0  0  0  0  0  0
    4.6521    3.6706   -0.2311 C   0  0  0  0  0  0  0  0  0  0  0  0
    3.2914    3.8756   -0.4227 C   0  0  0  0  0  0  0  0  0  0  0  0
    2.4565    2.8622   -0.9209 C   0  0  0  0  0  0  0  0  0  0  0  0
    1.1103    3.0757   -0.7420 O   0  0  0  0  0  0  0  0  0  0  0  0
    1.7679   -1.4705    0.4261 H   0  0  0  0  0  0  0  0  0  0  0  0
    1.1074    0.1070    0.8504 H   0  0  0  0  0  0  0  0  0  0  0  0
    1.1180   -0.9711    2.0776 H   0  0  0  0  0  0  0  0  0  0  0  0
    3.8517    1.6960    1.5412 H   0  0  0  0  0  0  0  0  0  0  0  0
    2.2804    1.6163    2.4271 H   0  0  0  0  0  0  0  0  0  0  0  0
    2.2652    1.5338    0.7992 H   0  0  0  0  0  0  0  0  0  0  0  0
    0.2595   -0.5281   -0.7530 H   0  0  0  0  0  0  0  0  0  0  0  0
   -0.0071    0.4313   -2.1224 H   0  0  0  0  0  0  0  0  0  0  0  0
    0.1645    1.1663   -0.4791 H   0  0  0  0  0  0  0  0  0  0  0  0
    4.7765    0.3407   -0.7758 H   0  0  0  0  0  0  0  0  0  0  0  0
    7.2537    1.6896   -0.9245 H   0  0  0  0  0  0  0  0  0  0  0  0
    6.9527    1.7745    0.8190 H   0  0  0  0  0  0  0  0  0  0  0  0
    7.0099    4.5633   -0.0857 H   0  0  0  0  0  0  0  0  0  0  0  0
    9.5813    2.9767   -0.0949 H   0  0  0  0  0  0  0  0  0  0  0  0
    9.2764    4.8230   -0.0929 H   0  0  0  0  0  0  0  0  0  0  0  0
    5.1787    4.5105    0.2110 H   0  0  0  0  0  0  0  0  0  0  0  0
    2.8866    4.8124   -0.0436 H   0  0  0  0  0  0  0  0  0  0  0  0
    0.9877    3.7830   -0.0848 H   0  0  0  0  0  0  0  0  0  0  0  0
  1  2  1  0  0  0  0
  1 16  1  0  0  0  0
  1 17  1  0  0  0  0
  1 18  1  0  0  0  0
  2  3  1  0  0  0  0
  3 19  1  0  0  0  0
  3 20  1  0  0  0  0
  3 21  1  0  0  0  0
  4  5  1  0  0  0  0
  4 22  1  0  0  0  0
  4 23  1  0  0  0  0
  4 24  1  0  0  0  0
  5  6  1  0  0  0  0
  6  7  1  0  0  0  0
  6 14  2  0  0  0  0
  7  8  2  0  0  0  0
  7 25  1  0  0  0  0
  8  9  1  0  0  0  0
  8 12  1  0  0  0  0
  9 10  1  0  0  0  0
  9 26  1  0  0  0  0
  9 27  1  0  0  0  0
 10 11  2  0  0  0  0
 10 28  1  0  0  0  0
 11 29  1  0  0  0  0
 11 30  1  0  0  0  0
 12 13  2  0  0  0  0
 12 31  1  0  0  0  0
 13 14  1  0  0  0  0
 13 32  1  0  0  0  0
 14 15  1  0  0  0  0
 15 33  1  0  0  0  0
M  END
$$$$
