
 OpenBabel07222214433D

 30 29  0  0  0  0  0  0  0  0999 V2000
    0.9573    0.0564   -0.0493 C   0  0  0  0  0  0  0  0  0  0  0  0
    2.4742    0.0602   -0.0613 C   0  0  0  0  0  0  0  0  0  0  0  0
    2.9942    0.3930   -1.4538 C   0  0  0  0  0  0  0  0  0  0  0  0
    4.5142    0.4051   -1.4747 C   0  0  0  0  0  0  0  0  0  0  0  0
    5.0218    0.7479   -2.8702 C   0  0  0  0  0  0  0  0  0  0  0  0
    6.5407    0.7436   -2.8737 C   0  0  0  0  0  0  0  0  0  0  0  0
    7.0995    1.0520   -4.2568 C   0  0  0  0  0  0  0  0  0  0  0  0
    8.6288    1.0309   -4.2673 C   0  0  0  0  0  0  0  0  0  0  0  0
    9.2015   -0.3282   -3.8828 C   0  0  0  0  0  0  0  0  0  0  0  0
    9.0829    1.3674   -5.5772 O   0  0  0  0  0  0  0  0  0  0  0  0
    0.5859   -0.1807    0.9512 H   0  0  0  0  0  0  0  0  0  0  0  0
    0.5662   -0.6897   -0.7484 H   0  0  0  0  0  0  0  0  0  0  0  0
    0.5654    1.0365   -0.3394 H   0  0  0  0  0  0  0  0  0  0  0  0
    2.8467   -0.9219    0.2528 H   0  0  0  0  0  0  0  0  0  0  0  0
    2.8453    0.7956    0.6621 H   0  0  0  0  0  0  0  0  0  0  0  0
    2.6161    1.3731   -1.7684 H   0  0  0  0  0  0  0  0  0  0  0  0
    2.6234   -0.3449   -2.1757 H   0  0  0  0  0  0  0  0  0  0  0  0
    4.8977   -0.5770   -1.1697 H   0  0  0  0  0  0  0  0  0  0  0  0
    4.8940    1.1373   -0.7515 H   0  0  0  0  0  0  0  0  0  0  0  0
    4.6464    1.7300   -3.1797 H   0  0  0  0  0  0  0  0  0  0  0  0
    4.6482    0.0107   -3.5916 H   0  0  0  0  0  0  0  0  0  0  0  0
    6.8738   -0.2444   -2.5397 H   0  0  0  0  0  0  0  0  0  0  0  0
    6.9198    1.4761   -2.1507 H   0  0  0  0  0  0  0  0  0  0  0  0
    6.7478    2.0365   -4.5925 H   0  0  0  0  0  0  0  0  0  0  0  0
    6.7106    0.3353   -4.9917 H   0  0  0  0  0  0  0  0  0  0  0  0
    9.0119    1.7957   -3.5838 H   0  0  0  0  0  0  0  0  0  0  0  0
    8.8332   -1.1092   -4.5569 H   0  0  0  0  0  0  0  0  0  0  0  0
    8.9441   -0.6064   -2.8567 H   0  0  0  0  0  0  0  0  0  0  0  0
   10.2922   -0.3219   -3.9612 H   0  0  0  0  0  0  0  0  0  0  0  0
    8.7461    0.6968   -6.1900 H   0  0  0  0  0  0  0  0  0  0  0  0
  1  2  1  0  0  0  0
  1 11  1  0  0  0  0
  1 12  1  0  0  0  0
  1 13  1  0  0  0  0
  2  3  1  0  0  0  0
  2 14  1  0  0  0  0
  2 15  1  0  0  0  0
  3  4  1  0  0  0  0
  3 16  1  0  0  0  0
  3 17  1  0  0  0  0
  4  5  1  0  0  0  0
  4 18  1  0  0  0  0
  4 19  1  0  0  0  0
  5  6  1  0  0  0  0
  5 20  1  0  0  0  0
  5 21  1  0  0  0  0
  6  7  1  0  0  0  0
  6 22  1  0  0  0  0
  6 23  1  0  0  0  0
  7  8  1  0  0  0  0
  7 24  1  0  0  0  0
  7 25  1  0  0  0  0
  8  9  1  0  0  0  0
  8 10  1  0  0  0  0
  8 26  1  0  0  0  0
  9 27  1  0  0  0  0
  9 28  1  0  0  0  0
  9 29  1  0  0  0  0
 10 30  1  0  0  0  0
M  END
$$$$
