
 OpenBabel07222214433D

 18 17  0  0  0  0  0  0  0  0999 V2000
    0.9862   -0.0689   -0.0027 C   0  0  0  0  0  0  0  0  0  0  0  0
    2.5221   -0.0997   -0.0436 C   0  0  0  0  0  0  0  0  0  0  0  0
    3.0125   -0.8434    1.2075 C   0  0  0  0  0  0  0  0  0  0  0  0
    3.0406   -0.7391   -1.3592 C   0  0  0  0  0  0  0  0  0  0  0  0
    2.5629    0.0032   -2.6088 C   0  0  0  0  0  0  0  0  0  0  0  0
    4.8748   -0.8030   -1.4345 S   0  0  0  0  0  0  0  0  0  0  0  0
    0.6300    0.3738    0.9340 H   0  0  0  0  0  0  0  0  0  0  0  0
    0.5709   -1.0792   -0.0786 H   0  0  0  0  0  0  0  0  0  0  0  0
    0.5680    0.5344   -0.8136 H   0  0  0  0  0  0  0  0  0  0  0  0
    2.8759    0.9374    0.0162 H   0  0  0  0  0  0  0  0  0  0  0  0
    2.6815   -1.8868    1.1989 H   0  0  0  0  0  0  0  0  0  0  0  0
    2.6183   -0.3722    2.1151 H   0  0  0  0  0  0  0  0  0  0  0  0
    4.1027   -0.8313    1.2942 H   0  0  0  0  0  0  0  0  0  0  0  0
    2.6922   -1.7761   -1.4157 H   0  0  0  0  0  0  0  0  0  0  0  0
    2.8663    1.0558   -2.5945 H   0  0  0  0  0  0  0  0  0  0  0  0
    1.4726   -0.0276   -2.6952 H   0  0  0  0  0  0  0  0  0  0  0  0
    2.9536   -0.4579   -3.5232 H   0  0  0  0  0  0  0  0  0  0  0  0
    5.0908    0.5119   -1.2835 H   0  0  0  0  0  0  0  0  0  0  0  0
  1  2  1  0  0  0  0
  1  7  1  0  0  0  0
  1  8  1  0  0  0  0
  1  9  1  0  0  0  0
  2  3  1  0  0  0  0
  2  4  1  0  0  0  0
  2 10  1  0  0  0  0
  3 11  1  0  0  0  0
  3 12  1  0  0  0  0
  3 13  1  0  0  0  0
  4  5  1  0  0  0  0
  4  6  1  0  0  0  0
  4 14  1  0  0  0  0
  5 15  1  0  0  0  0
  5 16  1  0  0  0  0
  5 17  1  0  0  0  0
  6 18  1  0  0  0  0
M  END
$$$$
