
 OpenBabel07202215583D

 16 15  0  0  0  0  0  0  0  0999 V2000
    0.9285   -0.0789    0.0037 C   0  0  0  0  0  0  0  0  0  0  0  0
    2.4456   -0.0751    0.0055 C   0  0  0  0  0  0  0  0  0  0  0  0
    3.0092    1.1944    0.6383 C   0  0  0  0  0  0  0  0  0  0  0  0
    4.5270    1.1827    0.6324 C   0  0  0  0  0  0  0  0  0  0  0  0
    5.1806    0.2477    0.1664 O   0  0  0  0  0  0  0  0  0  0  0  0
    5.2300    2.3729    1.2256 C   0  0  0  0  0  0  0  0  0  0  0  0
    0.5550   -0.9996   -0.4552 H   0  0  0  0  0  0  0  0  0  0  0  0
    0.5368    0.7696   -0.5657 H   0  0  0  0  0  0  0  0  0  0  0  0
    0.5368   -0.0226    1.0239 H   0  0  0  0  0  0  0  0  0  0  0  0
    2.8090   -0.1694   -1.0251 H   0  0  0  0  0  0  0  0  0  0  0  0
    2.8090   -0.9548    0.5507 H   0  0  0  0  0  0  0  0  0  0  0  0
    2.6673    1.2811    1.6758 H   0  0  0  0  0  0  0  0  0  0  0  0
    2.6673    2.0751    0.0828 H   0  0  0  0  0  0  0  0  0  0  0  0
    4.5109    3.1092    1.5926 H   0  0  0  0  0  0  0  0  0  0  0  0
    5.8513    2.8385    0.4563 H   0  0  0  0  0  0  0  0  0  0  0  0
    5.8513    2.0390    2.0605 H   0  0  0  0  0  0  0  0  0  0  0  0
  1  2  1  0  0  0  0
  1  7  1  0  0  0  0
  1  8  1  0  0  0  0
  1  9  1  0  0  0  0
  2  3  1  0  0  0  0
  2 10  1  0  0  0  0
  2 11  1  0  0  0  0
  3  4  1  0  0  0  0
  3 12  1  0  0  0  0
  3 13  1  0  0  0  0
  4  5  2  0  0  0  0
  4  6  1  0  0  0  0
  6 14  1  0  0  0  0
  6 15  1  0  0  0  0
  6 16  1  0  0  0  0
M  END
$$$$
