
 OpenBabel07222214443D

 32 32  0  0  0  0  0  0  0  0999 V2000
    0.8870   -0.1456   -0.0448 C   0  0  0  0  0  0  0  0  0  0  0  0
    2.4017   -0.1706    0.0535 C   0  0  0  0  0  0  0  0  0  0  0  0
    2.9488    0.0094    1.5003 C   0  0  0  0  0  0  0  0  0  0  0  0
    2.2460    1.1998    2.1805 C   0  0  0  0  0  0  0  0  0  0  0  0
    2.5507   -1.2210    2.3462 C   0  0  0  0  0  0  0  0  0  0  0  0
    4.5335    0.1295    1.5038 C   0  0  0  0  0  0  0  0  0  0  0  0
    5.1183    0.8682    2.7326 C   0  0  0  0  0  0  0  0  0  0  0  0
    4.8779    2.3815    2.7438 C   0  0  0  0  0  0  0  0  0  0  0  0
    5.0729    3.0353    1.3849 C   0  0  0  0  0  0  0  0  0  0  0  0
    5.3354    4.2293    1.3069 O   0  0  0  0  0  0  0  0  0  0  0  0
    4.7204    2.2478    0.1355 C   0  0  0  0  0  0  0  0  0  0  0  0
    5.1351    0.7902    0.2480 C   0  0  0  0  0  0  0  0  0  0  0  0
    0.5763   -0.2287   -1.0872 H   0  0  0  0  0  0  0  0  0  0  0  0
    0.4857    0.8046    0.3192 H   0  0  0  0  0  0  0  0  0  0  0  0
    0.4432   -0.9617    0.5260 H   0  0  0  0  0  0  0  0  0  0  0  0
    2.7367    0.6334   -0.6060 H   0  0  0  0  0  0  0  0  0  0  0  0
    2.7948   -1.0970   -0.3840 H   0  0  0  0  0  0  0  0  0  0  0  0
    1.1586    1.1317    2.1954 H   0  0  0  0  0  0  0  0  0  0  0  0
    2.4725    2.1418    1.6793 H   0  0  0  0  0  0  0  0  0  0  0  0
    2.5153    1.2447    3.2400 H   0  0  0  0  0  0  0  0  0  0  0  0
    1.4621   -1.2906    2.4448 H   0  0  0  0  0  0  0  0  0  0  0  0
    2.9521   -1.1522    3.3627 H   0  0  0  0  0  0  0  0  0  0  0  0
    2.9085   -2.1523    1.8972 H   0  0  0  0  0  0  0  0  0  0  0  0
    4.9395   -0.8954    1.5243 H   0  0  0  0  0  0  0  0  0  0  0  0
    6.2065    0.7167    2.7389 H   0  0  0  0  0  0  0  0  0  0  0  0
    4.7517    0.4110    3.6591 H   0  0  0  0  0  0  0  0  0  0  0  0
    5.5335    2.8530    3.4803 H   0  0  0  0  0  0  0  0  0  0  0  0
    3.8810    2.6560    3.0906 H   0  0  0  0  0  0  0  0  0  0  0  0
    5.2081    2.7020   -0.7311 H   0  0  0  0  0  0  0  0  0  0  0  0
    3.6472    2.3556   -0.0358 H   0  0  0  0  0  0  0  0  0  0  0  0
    6.2313    0.7276    0.2862 H   0  0  0  0  0  0  0  0  0  0  0  0
    4.8595    0.2313   -0.6551 H   0  0  0  0  0  0  0  0  0  0  0  0
  1  2  1  0  0  0  0
  1 13  1  0  0  0  0
  1 14  1  0  0  0  0
  1 15  1  0  0  0  0
  2  3  1  0  0  0  0
  2 16  1  0  0  0  0
  2 17  1  0  0  0  0
  3  4  1  0  0  0  0
  3  5  1  0  0  0  0
  3  6  1  0  0  0  0
  4 18  1  0  0  0  0
  4 19  1  0  0  0  0
  4 20  1  0  0  0  0
  5 21  1  0  0  0  0
  5 22  1  0  0  0  0
  5 23  1  0  0  0  0
  6  7  1  0  0  0  0
  6 12  1  0  0  0  0
  6 24  1  0  0  0  0
  7  8  1  0  0  0  0
  7 25  1  0  0  0  0
  7 26  1  0  0  0  0
  8  9  1  0  0  0  0
  8 27  1  0  0  0  0
  8 28  1  0  0  0  0
  9 10  2  0  0  0  0
  9 11  1  0  0  0  0
 11 12  1  0  0  0  0
 11 29  1  0  0  0  0
 11 30  1  0  0  0  0
 12 31  1  0  0  0  0
 12 32  1  0  0  0  0
M  END
$$$$
