
 OpenBabel07202215583D

 25 26  0  0  0  0  0  0  0  0999 V2000
    1.0047   -0.0499   -0.0362 C   0  0  0  0  0  0  0  0  0  0  0  0
    2.4299   -0.0002   -0.0983 O   0  0  0  0  0  0  0  0  0  0  0  0
    3.0424    0.6763    0.9226 C   0  0  0  0  0  0  0  0  0  0  0  0
    4.2205    1.3635    0.5979 C   0  0  0  0  0  0  0  0  0  0  0  0
    4.9527    2.0490    1.5849 C   0  0  0  0  0  0  0  0  0  0  0  0
    4.4707    2.0418    2.9037 C   0  0  0  0  0  0  0  0  0  0  0  0
    3.3169    1.3282    3.2346 C   0  0  0  0  0  0  0  0  0  0  0  0
    2.6058    0.6485    2.2460 C   0  0  0  0  0  0  0  0  0  0  0  0
    5.1650    2.8147    3.9673 C   0  0  0  0  0  0  0  0  0  0  0  0
    4.8390    2.7054    5.1430 O   0  0  0  0  0  0  0  0  0  0  0  0
    6.2239    3.7871    3.5106 C   0  0  0  0  0  0  0  0  0  0  0  0
    7.0699    3.1325    2.4318 C   0  0  0  0  0  0  0  0  0  0  0  0
    6.2058    2.8051    1.2131 C   0  0  0  0  0  0  0  0  0  0  0  0
    0.6549   -0.7046   -0.8406 H   0  0  0  0  0  0  0  0  0  0  0  0
    0.5872    0.9481   -0.2029 H   0  0  0  0  0  0  0  0  0  0  0  0
    0.6232   -0.4747    0.8968 H   0  0  0  0  0  0  0  0  0  0  0  0
    4.5627    1.3674   -0.4359 H   0  0  0  0  0  0  0  0  0  0  0  0
    2.9647    1.2999    4.2634 H   0  0  0  0  0  0  0  0  0  0  0  0
    1.7281    0.0895    2.5484 H   0  0  0  0  0  0  0  0  0  0  0  0
    6.8483    4.0620    4.3666 H   0  0  0  0  0  0  0  0  0  0  0  0
    5.7291    4.6926    3.1407 H   0  0  0  0  0  0  0  0  0  0  0  0
    7.5189    2.2110    2.8268 H   0  0  0  0  0  0  0  0  0  0  0  0
    7.8925    3.7954    2.1424 H   0  0  0  0  0  0  0  0  0  0  0  0
    6.8041    2.2166    0.5078 H   0  0  0  0  0  0  0  0  0  0  0  0
    5.9156    3.7372    0.7134 H   0  0  0  0  0  0  0  0  0  0  0  0
  1  2  1  0  0  0  0
  1 14  1  0  0  0  0
  1 15  1  0  0  0  0
  1 16  1  0  0  0  0
  2  3  1  0  0  0  0
  3  4  2  0  0  0  0
  3  8  1  0  0  0  0
  4  5  1  0  0  0  0
  4 17  1  0  0  0  0
  5  6  2  0  0  0  0
  5 13  1  0  0  0  0
  6  7  1  0  0  0  0
  6  9  1  0  0  0  0
  7  8  2  0  0  0  0
  7 18  1  0  0  0  0
  8 19  1  0  0  0  0
  9 10  2  0  0  0  0
  9 11  1  0  0  0  0
 11 12  1  0  0  0  0
 11 20  1  0  0  0  0
 11 21  1  0  0  0  0
 12 13  1  0  0  0  0
 12 22  1  0  0  0  0
 12 23  1  0  0  0  0
 13 24  1  0  0  0  0
 13 25  1  0  0  0  0
M  END
$$$$
