
 OpenBabel07122215493D

 30 30  0  0  0  0  0  0  0  0999 V2000
    1.0585    0.0469   -0.0103 C   0  0  0  0  0  0  0  0  0  0  0  0
    2.5747    0.0545   -0.0146 C   0  0  0  0  0  0  0  0  0  0  0  0
    3.0961    1.4232   -0.4303 C   0  0  0  0  0  0  0  0  0  0  0  0
    4.6164    1.4353   -0.4478 C   0  0  0  0  0  0  0  0  0  0  0  0
    5.1257    2.8064   -0.8770 C   0  0  0  0  0  0  0  0  0  0  0  0
    6.6039    2.8356   -0.8186 C   0  0  0  0  0  0  0  0  0  0  0  0
    7.4075    3.1077    0.2164 C   0  0  0  0  0  0  0  0  0  0  0  0
    6.9505    3.4236    1.6017 C   0  0  0  0  0  0  0  0  0  0  0  0
    8.8673    3.0495   -0.1173 C   0  0  0  0  0  0  0  0  0  0  0  0
    8.9263    2.5695   -1.5659 C   0  0  0  0  0  0  0  0  0  0  0  0
    7.4799    2.5208   -1.9603 C   0  0  0  0  0  0  0  0  0  0  0  0
    7.0665    2.2305   -3.0705 O   0  0  0  0  0  0  0  0  0  0  0  0
    0.6848   -0.9371    0.2843 H   0  0  0  0  0  0  0  0  0  0  0  0
    0.6687    0.2813   -1.0060 H   0  0  0  0  0  0  0  0  0  0  0  0
    0.6701    0.7898    0.6937 H   0  0  0  0  0  0  0  0  0  0  0  0
    2.9448   -0.7113   -0.7061 H   0  0  0  0  0  0  0  0  0  0  0  0
    2.9470   -0.2011    0.9846 H   0  0  0  0  0  0  0  0  0  0  0  0
    2.7292    2.1874    0.2665 H   0  0  0  0  0  0  0  0  0  0  0  0
    2.7160    1.6823   -1.4257 H   0  0  0  0  0  0  0  0  0  0  0  0
    4.9909    0.6636   -1.1319 H   0  0  0  0  0  0  0  0  0  0  0  0
    4.9924    1.1830    0.5530 H   0  0  0  0  0  0  0  0  0  0  0  0
    4.7145    3.5781   -0.2143 H   0  0  0  0  0  0  0  0  0  0  0  0
    4.7706    3.0571   -1.8823 H   0  0  0  0  0  0  0  0  0  0  0  0
    5.8598    3.3891    1.6951 H   0  0  0  0  0  0  0  0  0  0  0  0
    7.2717    4.4265    1.8935 H   0  0  0  0  0  0  0  0  0  0  0  0
    7.3514    2.6944    2.3116 H   0  0  0  0  0  0  0  0  0  0  0  0
    9.4023    2.3581    0.5413 H   0  0  0  0  0  0  0  0  0  0  0  0
    9.3215    4.0413   -0.0188 H   0  0  0  0  0  0  0  0  0  0  0  0
    9.3589    1.5670   -1.6368 H   0  0  0  0  0  0  0  0  0  0  0  0
    9.4736    3.2670   -2.2051 H   0  0  0  0  0  0  0  0  0  0  0  0
  1  2  1  0  0  0  0
  1 13  1  0  0  0  0
  1 14  1  0  0  0  0
  1 15  1  0  0  0  0
  2  3  1  0  0  0  0
  2 16  1  0  0  0  0
  2 17  1  0  0  0  0
  3  4  1  0  0  0  0
  3 18  1  0  0  0  0
  3 19  1  0  0  0  0
  4  5  1  0  0  0  0
  4 20  1  0  0  0  0
  4 21  1  0  0  0  0
  5  6  1  0  0  0  0
  5 22  1  0  0  0  0
  5 23  1  0  0  0  0
  6  7  2  0  0  0  0
  6 11  1  0  0  0  0
  7  8  1  0  0  0  0
  7  9  1  0  0  0  0
  8 24  1  0  0  0  0
  8 25  1  0  0  0  0
  8 26  1  0  0  0  0
  9 10  1  0  0  0  0
  9 27  1  0  0  0  0
  9 28  1  0  0  0  0
 10 11  1  0  0  0  0
 10 29  1  0  0  0  0
 10 30  1  0  0  0  0
 11 12  2  0  0  0  0
M  END
$$$$
