
 OpenBabel07202215583D

 27 28  0  0  1  0  0  0  0  0999 V2000
   -0.4669    1.9590   -0.9395 C   0  0  0  0  0  0  0  0  0  0  0  0
   -0.1726    0.5344   -0.5315 C   0  0  1  0  0  0  0  0  0  0  0  0
    0.1276   -0.4369   -1.6953 C   0  0  0  0  0  0  0  0  0  0  0  0
    0.7701   -1.6461   -0.9752 C   0  0  0  0  0  0  0  0  0  0  0  0
    0.7400   -1.2296    0.5180 C   0  0  1  0  0  0  0  0  0  0  0  0
    1.0078    0.2989    0.4500 C   0  0  0  0  0  0  0  0  0  0  0  0
    2.3912    0.6694   -0.1210 C   0  0  0  0  0  0  0  0  0  0  0  0
    0.8720    1.0312    1.7986 C   0  0  0  0  0  0  0  0  0  0  0  0
   -0.7267   -1.3343    1.0058 C   0  0  0  0  0  0  0  0  0  0  0  0
   -1.3028   -0.1630    0.2330 C   0  0  0  0  0  0  0  0  0  0  0  0
   -2.4829    0.1462    0.2090 O   0  0  0  0  0  0  0  0  0  0  0  0
    0.3898    2.4140   -1.4469 H   0  0  0  0  0  0  0  0  0  0  0  0
   -0.7151    2.5807   -0.0726 H   0  0  0  0  0  0  0  0  0  0  0  0
   -1.3223    2.0039   -1.6217 H   0  0  0  0  0  0  0  0  0  0  0  0
    0.8227   -0.0033   -2.4229 H   0  0  0  0  0  0  0  0  0  0  0  0
   -0.7771   -0.7355   -2.2363 H   0  0  0  0  0  0  0  0  0  0  0  0
    1.7983   -1.8002   -1.3201 H   0  0  0  0  0  0  0  0  0  0  0  0
    0.2207   -2.5736   -1.1657 H   0  0  0  0  0  0  0  0  0  0  0  0
    1.4336   -1.8035    1.1373 H   0  0  0  0  0  0  0  0  0  0  0  0
    2.6159    0.2161   -1.0891 H   0  0  0  0  0  0  0  0  0  0  0  0
    3.1861    0.3567    0.5647 H   0  0  0  0  0  0  0  0  0  0  0  0
    2.4721    1.7530   -0.2604 H   0  0  0  0  0  0  0  0  0  0  0  0
   -0.0836    0.8649    2.3023 H   0  0  0  0  0  0  0  0  0  0  0  0
    0.9642    2.1139    1.6605 H   0  0  0  0  0  0  0  0  0  0  0  0
    1.6607    0.7118    2.4886 H   0  0  0  0  0  0  0  0  0  0  0  0
   -0.8187   -1.1626    2.0808 H   0  0  0  0  0  0  0  0  0  0  0  0
   -1.2049   -2.2750    0.7252 H   0  0  0  0  0  0  0  0  0  0  0  0
  1 12  1  0  0  0  0
  1 13  1  0  0  0  0
  1 14  1  0  0  0  0
  2  1  1  6  0  0  0
  2  3  1  0  0  0  0
  2  6  1  0  0  0  0
  2 10  1  0  0  0  0
  3  4  1  0  0  0  0
  3 15  1  0  0  0  0
  3 16  1  0  0  0  0
  4  5  1  0  0  0  0
  4 17  1  0  0  0  0
  4 18  1  0  0  0  0
  5  6  1  0  0  0  0
  5  9  1  0  0  0  0
  5 19  1  1  0  0  0
  6  7  1  0  0  0  0
  6  8  1  0  0  0  0
  7 20  1  0  0  0  0
  7 21  1  0  0  0  0
  7 22  1  0  0  0  0
  8 23  1  0  0  0  0
  8 24  1  0  0  0  0
  8 25  1  0  0  0  0
  9 10  1  0  0  0  0
  9 26  1  0  0  0  0
  9 27  1  0  0  0  0
 10 11  2  0  0  0  0
M  END
$$$$
