
 OpenBabel07222214433D

 29 28  0  0  0  0  0  0  0  0999 V2000
    0.9142    0.0559   -0.0139 C   0  0  0  0  0  0  0  0  0  0  0  0
    2.4345    0.0506   -0.0246 C   0  0  0  0  0  0  0  0  0  0  0  0
    2.9726   -0.5905   -1.3033 C   0  0  0  0  0  0  0  0  0  0  0  0
    4.5030   -0.6018   -1.3257 C   0  0  0  0  0  0  0  0  0  0  0  0
    5.0371   -1.2432   -2.6050 C   0  0  0  0  0  0  0  0  0  0  0  0
    6.4778   -1.2392   -2.5970 O   0  0  0  0  0  0  0  0  0  0  0  0
    7.0236   -1.8008   -3.7172 C   0  0  0  0  0  0  0  0  0  0  0  0
    6.3683   -2.2652   -4.6433 O   0  0  0  0  0  0  0  0  0  0  0  0
    8.5395   -1.7775   -3.6706 C   0  0  0  0  0  0  0  0  0  0  0  0
    9.1238   -2.4128   -4.9377 C   0  0  0  0  0  0  0  0  0  0  0  0
   10.6429   -2.4169   -4.9460 C   0  0  0  0  0  0  0  0  0  0  0  0
    0.5402    0.5168    0.9054 H   0  0  0  0  0  0  0  0  0  0  0  0
    0.5202   -0.9640   -0.0689 H   0  0  0  0  0  0  0  0  0  0  0  0
    0.5202    0.6220   -0.8641 H   0  0  0  0  0  0  0  0  0  0  0  0
    2.8000   -0.4980    0.8513 H   0  0  0  0  0  0  0  0  0  0  0  0
    2.8000    1.0806    0.0598 H   0  0  0  0  0  0  0  0  0  0  0  0
    2.5932   -0.0404   -2.1736 H   0  0  0  0  0  0  0  0  0  0  0  0
    2.5932   -1.6170   -1.3831 H   0  0  0  0  0  0  0  0  0  0  0  0
    4.8870   -1.1457   -0.4543 H   0  0  0  0  0  0  0  0  0  0  0  0
    4.8870    0.4219   -1.2403 H   0  0  0  0  0  0  0  0  0  0  0  0
    4.6778   -0.6780   -3.4737 H   0  0  0  0  0  0  0  0  0  0  0  0
    4.6778   -2.2774   -2.6717 H   0  0  0  0  0  0  0  0  0  0  0  0
    8.8790   -2.3341   -2.7900 H   0  0  0  0  0  0  0  0  0  0  0  0
    8.8790   -0.7389   -3.5898 H   0  0  0  0  0  0  0  0  0  0  0  0
    8.7647   -1.8722   -5.8222 H   0  0  0  0  0  0  0  0  0  0  0  0
    8.7647   -3.4449   -5.0337 H   0  0  0  0  0  0  0  0  0  0  0  0
   11.0392   -1.3983   -4.8967 H   0  0  0  0  0  0  0  0  0  0  0  0
   11.0130   -2.8791   -5.8678 H   0  0  0  0  0  0  0  0  0  0  0  0
   11.0392   -2.9868   -4.1003 H   0  0  0  0  0  0  0  0  0  0  0  0
  1  2  1  0  0  0  0
  1 12  1  0  0  0  0
  1 13  1  0  0  0  0
  1 14  1  0  0  0  0
  2  3  1  0  0  0  0
  2 15  1  0  0  0  0
  2 16  1  0  0  0  0
  3  4  1  0  0  0  0
  3 17  1  0  0  0  0
  3 18  1  0  0  0  0
  4  5  1  0  0  0  0
  4 19  1  0  0  0  0
  4 20  1  0  0  0  0
  5  6  1  0  0  0  0
  5 21  1  0  0  0  0
  5 22  1  0  0  0  0
  6  7  1  0  0  0  0
  7  8  2  0  0  0  0
  7  9  1  0  0  0  0
  9 10  1  0  0  0  0
  9 23  1  0  0  0  0
  9 24  1  0  0  0  0
 10 11  1  0  0  0  0
 10 25  1  0  0  0  0
 10 26  1  0  0  0  0
 11 27  1  0  0  0  0
 11 28  1  0  0  0  0
 11 29  1  0  0  0  0
M  END
$$$$
