
 OpenBabel07122215493D

 26 26  0  0  0  0  0  0  0  0999 V2000
    1.0954    0.0446    0.0902 C   0  0  0  0  0  0  0  0  0  0  0  0
    2.6182    0.0566    0.1592 C   0  0  0  0  0  0  0  0  0  0  0  0
    3.1264   -1.1933   -0.3355 O   0  0  0  0  0  0  0  0  0  0  0  0
    4.4606   -1.2406   -0.6048 C   0  0  0  0  0  0  0  0  0  0  0  0
    5.2716   -0.3953   -0.2396 O   0  0  0  0  0  0  0  0  0  0  0  0
    4.8381   -2.4889   -1.3679 C   0  0  0  0  0  0  0  0  0  0  0  0
    4.1862   -2.5761   -2.7546 C   0  0  0  0  0  0  0  0  0  0  0  0
    2.6623   -2.5433   -2.6836 C   0  0  0  0  0  0  0  0  0  0  0  0
    4.5754   -3.8321   -3.3433 O   0  0  0  0  0  0  0  0  0  0  0  0
    5.5304   -3.5338   -4.3628 C   0  0  0  0  0  0  0  0  0  0  0  0
    5.7791   -2.0495   -4.2890 C   0  0  0  0  0  0  0  0  0  0  0  0
    4.6461   -1.5206   -3.6050 O   0  0  0  0  0  0  0  0  0  0  0  0
    0.6790    0.9409    0.5614 H   0  0  0  0  0  0  0  0  0  0  0  0
    0.6837   -0.8382    0.5899 H   0  0  0  0  0  0  0  0  0  0  0  0
    0.7430    0.0135   -0.9475 H   0  0  0  0  0  0  0  0  0  0  0  0
    2.9368    0.1761    1.1977 H   0  0  0  0  0  0  0  0  0  0  0  0
    2.9960    0.8887   -0.4467 H   0  0  0  0  0  0  0  0  0  0  0  0
    4.6054   -3.3732   -0.7623 H   0  0  0  0  0  0  0  0  0  0  0  0
    5.9317   -2.4915   -1.4763 H   0  0  0  0  0  0  0  0  0  0  0  0
    2.2922   -3.2989   -1.9807 H   0  0  0  0  0  0  0  0  0  0  0  0
    2.2033   -2.7378   -3.6558 H   0  0  0  0  0  0  0  0  0  0  0  0
    2.2926   -1.5577   -2.3896 H   0  0  0  0  0  0  0  0  0  0  0  0
    5.1216   -3.8266   -5.3356 H   0  0  0  0  0  0  0  0  0  0  0  0
    6.4430   -4.1133   -4.1911 H   0  0  0  0  0  0  0  0  0  0  0  0
    5.8787   -1.5891   -5.2764 H   0  0  0  0  0  0  0  0  0  0  0  0
    6.6832   -1.8236   -3.7138 H   0  0  0  0  0  0  0  0  0  0  0  0
  1  2  1  0  0  0  0
  1 13  1  0  0  0  0
  1 14  1  0  0  0  0
  1 15  1  0  0  0  0
  2  3  1  0  0  0  0
  2 16  1  0  0  0  0
  2 17  1  0  0  0  0
  3  4  1  0  0  0  0
  4  5  2  0  0  0  0
  4  6  1  0  0  0  0
  6  7  1  0  0  0  0
  6 18  1  0  0  0  0
  6 19  1  0  0  0  0
  7  8  1  0  0  0  0
  7  9  1  0  0  0  0
  7 12  1  0  0  0  0
  8 20  1  0  0  0  0
  8 21  1  0  0  0  0
  8 22  1  0  0  0  0
  9 10  1  0  0  0  0
 10 11  1  0  0  0  0
 10 23  1  0  0  0  0
 10 24  1  0  0  0  0
 11 12  1  0  0  0  0
 11 25  1  0  0  0  0
 11 26  1  0  0  0  0
M  END
$$$$
