
 OpenBabel07222214433D

 29 28  0  0  0  0  0  0  0  0999 V2000
    1.0483   -0.0137   -0.0848 C   0  0  0  0  0  0  0  0  0  0  0  0
    2.5655   -0.0196   -0.0772 C   0  0  0  0  0  0  0  0  0  0  0  0
    3.0901   -0.8889    1.0597 C   0  0  0  0  0  0  0  0  0  0  0  0
    4.6129   -0.9013    1.0759 C   0  0  0  0  0  0  0  0  0  0  0  0
    5.1311   -1.7739    2.2171 C   0  0  0  0  0  0  0  0  0  0  0  0
    6.6541   -1.7812    2.2267 C   0  0  0  0  0  0  0  0  0  0  0  0
    7.2287   -2.6419    3.3522 C   0  0  0  0  0  0  0  0  0  0  0  0
    8.7418   -2.6061    3.3054 C   0  0  0  0  0  0  0  0  0  0  0  0
    9.3983   -1.9774    2.4832 O   0  0  0  0  0  0  0  0  0  0  0  0
    9.2812   -3.3661    4.2993 O   0  0  0  0  0  0  0  0  0  0  0  0
   10.7139   -3.3659    4.2990 C   0  0  0  0  0  0  0  0  0  0  0  0
    0.6744    0.6104   -0.9010 H   0  0  0  0  0  0  0  0  0  0  0  0
    0.6580    0.3817    0.8584 H   0  0  0  0  0  0  0  0  0  0  0  0
    0.6580   -1.0276   -0.2192 H   0  0  0  0  0  0  0  0  0  0  0  0
    2.9354    1.0064    0.0347 H   0  0  0  0  0  0  0  0  0  0  0  0
    2.9354   -0.3964   -1.0379 H   0  0  0  0  0  0  0  0  0  0  0  0
    2.7147   -1.9132    0.9461 H   0  0  0  0  0  0  0  0  0  0  0  0
    2.7147   -0.5108    2.0185 H   0  0  0  0  0  0  0  0  0  0  0  0
    4.9895    0.1230    1.1892 H   0  0  0  0  0  0  0  0  0  0  0  0
    4.9895   -1.2790    0.1171 H   0  0  0  0  0  0  0  0  0  0  0  0
    4.7532   -2.7965    2.0997 H   0  0  0  0  0  0  0  0  0  0  0  0
    4.7532   -1.3926    3.1732 H   0  0  0  0  0  0  0  0  0  0  0  0
    7.0207   -0.7518    2.3294 H   0  0  0  0  0  0  0  0  0  0  0  0
    7.0207   -2.1501    1.2601 H   0  0  0  0  0  0  0  0  0  0  0  0
    6.8886   -3.6771    3.2371 H   0  0  0  0  0  0  0  0  0  0  0  0
    6.8886   -2.2595    4.3212 H   0  0  0  0  0  0  0  0  0  0  0  0
   11.0623   -3.9955    5.1225 H   0  0  0  0  0  0  0  0  0  0  0  0
   11.1000   -2.3527    4.4550 H   0  0  0  0  0  0  0  0  0  0  0  0
   11.1000   -3.7819    3.3621 H   0  0  0  0  0  0  0  0  0  0  0  0
  1  2  1  0  0  0  0
  1 12  1  0  0  0  0
  1 13  1  0  0  0  0
  1 14  1  0  0  0  0
  2  3  1  0  0  0  0
  2 15  1  0  0  0  0
  2 16  1  0  0  0  0
  3  4  1  0  0  0  0
  3 17  1  0  0  0  0
  3 18  1  0  0  0  0
  4  5  1  0  0  0  0
  4 19  1  0  0  0  0
  4 20  1  0  0  0  0
  5  6  1  0  0  0  0
  5 21  1  0  0  0  0
  5 22  1  0  0  0  0
  6  7  1  0  0  0  0
  6 23  1  0  0  0  0
  6 24  1  0  0  0  0
  7  8  1  0  0  0  0
  7 25  1  0  0  0  0
  7 26  1  0  0  0  0
  8  9  2  0  0  0  0
  8 10  1  0  0  0  0
 10 11  1  0  0  0  0
 11 27  1  0  0  0  0
 11 28  1  0  0  0  0
 11 29  1  0  0  0  0
M  END
$$$$
