
 OpenBabel07222214443D

 30 30  0  0  0  0  0  0  0  0999 V2000
    0.9813    0.0734   -0.0602 C   0  0  0  0  0  0  0  0  0  0  0  0
    2.4992    0.0636   -0.0374 C   0  0  0  0  0  0  0  0  0  0  0  0
    2.9232   -0.8158   -1.0774 O   0  0  0  0  0  0  0  0  0  0  0  0
    4.2746   -0.9105   -1.2656 C   0  0  0  0  0  0  0  0  0  0  0  0
    4.8054   -0.9174   -2.5650 C   0  0  0  0  0  0  0  0  0  0  0  0
    6.1647   -1.2507   -2.7517 C   0  0  0  0  0  0  0  0  0  0  0  0
    7.0216   -1.4747   -1.6582 C   0  0  0  0  0  0  0  0  0  0  0  0
    6.4625   -1.4367   -0.3776 C   0  0  0  0  0  0  0  0  0  0  0  0
    5.1109   -1.1681   -0.1823 C   0  0  0  0  0  0  0  0  0  0  0  0
    8.4693   -1.6909   -1.8635 C   0  0  0  0  0  0  0  0  0  0  0  0
    9.3740   -1.8140   -0.8689 C   0  0  0  0  0  0  0  0  0  0  0  0
   10.8448   -1.9654   -1.0595 C   0  0  0  0  0  0  0  0  0  0  0  0
    4.1362   -0.6020   -3.7260 O   0  0  0  0  0  0  0  0  0  0  0  0
    2.8402   -0.0209   -3.5908 C   0  0  0  0  0  0  0  0  0  0  0  0
    0.5836    0.7182    0.7271 H   0  0  0  0  0  0  0  0  0  0  0  0
    0.5924   -0.9412    0.0817 H   0  0  0  0  0  0  0  0  0  0  0  0
    0.6090    0.4212   -1.0296 H   0  0  0  0  0  0  0  0  0  0  0  0
    2.8269   -0.2901    0.9439 H   0  0  0  0  0  0  0  0  0  0  0  0
    2.8829    1.0746   -0.2173 H   0  0  0  0  0  0  0  0  0  0  0  0
    6.5471   -1.3252   -3.7687 H   0  0  0  0  0  0  0  0  0  0  0  0
    7.0564   -1.6355    0.5077 H   0  0  0  0  0  0  0  0  0  0  0  0
    4.7312   -1.1981    0.8320 H   0  0  0  0  0  0  0  0  0  0  0  0
    8.8139   -1.7021   -2.8941 H   0  0  0  0  0  0  0  0  0  0  0  0
    9.0757   -1.7903    0.1726 H   0  0  0  0  0  0  0  0  0  0  0  0
   11.1328   -1.9565   -2.1133 H   0  0  0  0  0  0  0  0  0  0  0  0
   11.1782   -2.9068   -0.6116 H   0  0  0  0  0  0  0  0  0  0  0  0
   11.3652   -1.1461   -0.5513 H   0  0  0  0  0  0  0  0  0  0  0  0
    2.5080    0.3349   -4.5703 H   0  0  0  0  0  0  0  0  0  0  0  0
    2.8454    0.8500   -2.9232 H   0  0  0  0  0  0  0  0  0  0  0  0
    2.1169   -0.7768   -3.2695 H   0  0  0  0  0  0  0  0  0  0  0  0
  1  2  1  0  0  0  0
  1 15  1  0  0  0  0
  1 16  1  0  0  0  0
  1 17  1  0  0  0  0
  2  3  1  0  0  0  0
  2 18  1  0  0  0  0
  2 19  1  0  0  0  0
  3  4  1  0  0  0  0
  4  5  2  0  0  0  0
  4  9  1  0  0  0  0
  5  6  1  0  0  0  0
  5 13  1  0  0  0  0
  6  7  2  0  0  0  0
  6 20  1  0  0  0  0
  7  8  1  0  0  0  0
  7 10  1  0  0  0  0
  8  9  2  0  0  0  0
  8 21  1  0  0  0  0
  9 22  1  0  0  0  0
 10 11  2  0  0  0  0
 10 23  1  0  0  0  0
 11 12  1  0  0  0  0
 11 24  1  0  0  0  0
 12 25  1  0  0  0  0
 12 26  1  0  0  0  0
 12 27  1  0  0  0  0
 13 14  1  0  0  0  0
 14 28  1  0  0  0  0
 14 29  1  0  0  0  0
 14 30  1  0  0  0  0
M  END
$$$$
