
 OpenBabel07202215583D

 28 28  0  0  0  0  0  0  0  0999 V2000
    0.9216    0.0539    0.0807 C   0  0  0  0  0  0  0  0  0  0  0  0
    2.4662    0.0261    0.0742 C   0  0  0  0  0  0  0  0  0  0  0  0
    2.9825    0.5166   -1.2885 C   0  0  0  0  0  0  0  0  0  0  0  0
    2.9337    1.0222    1.1622 C   0  0  0  0  0  0  0  0  0  0  0  0
    2.9730   -1.3977    0.3422 C   0  0  0  0  0  0  0  0  0  0  0  0
    2.3866   -2.5125   -0.2861 C   0  0  0  0  0  0  0  0  0  0  0  0
    2.7564   -3.8142    0.0694 C   0  0  0  0  0  0  0  0  0  0  0  0
    3.7740   -4.0345    0.9916 C   0  0  0  0  0  0  0  0  0  0  0  0
    4.3983   -2.9399    1.5844 C   0  0  0  0  0  0  0  0  0  0  0  0
    4.0059   -1.6445    1.2549 C   0  0  0  0  0  0  0  0  0  0  0  0
    4.0916   -5.3420    1.2358 O   0  0  0  0  0  0  0  0  0  0  0  0
    5.2385   -5.5502    2.0543 C   0  0  0  0  0  0  0  0  0  0  0  0
    0.5424    1.0710   -0.0648 H   0  0  0  0  0  0  0  0  0  0  0  0
    0.5283   -0.3191    1.0343 H   0  0  0  0  0  0  0  0  0  0  0  0
    0.4881   -0.5599   -0.7160 H   0  0  0  0  0  0  0  0  0  0  0  0
    2.6374    1.5370   -1.4937 H   0  0  0  0  0  0  0  0  0  0  0  0
    2.6340   -0.1205   -2.1091 H   0  0  0  0  0  0  0  0  0  0  0  0
    4.0784    0.5244   -1.3198 H   0  0  0  0  0  0  0  0  0  0  0  0
    2.5226    2.0232    0.9985 H   0  0  0  0  0  0  0  0  0  0  0  0
    4.0247    1.1306    1.1747 H   0  0  0  0  0  0  0  0  0  0  0  0
    2.6160    0.6910    2.1593 H   0  0  0  0  0  0  0  0  0  0  0  0
    1.6224   -2.3880   -1.0480 H   0  0  0  0  0  0  0  0  0  0  0  0
    2.2364   -4.6592   -0.3784 H   0  0  0  0  0  0  0  0  0  0  0  0
    5.1834   -3.0495    2.3212 H   0  0  0  0  0  0  0  0  0  0  0  0
    4.5322   -0.8373    1.7570 H   0  0  0  0  0  0  0  0  0  0  0  0
    5.4486   -6.6218    2.0817 H   0  0  0  0  0  0  0  0  0  0  0  0
    5.0451   -5.2172    3.0800 H   0  0  0  0  0  0  0  0  0  0  0  0
    6.1223   -5.0499    1.6401 H   0  0  0  0  0  0  0  0  0  0  0  0
  1  2  1  0  0  0  0
  1 13  1  0  0  0  0
  1 14  1  0  0  0  0
  1 15  1  0  0  0  0
  2  3  1  0  0  0  0
  2  4  1  0  0  0  0
  2  5  1  0  0  0  0
  3 16  1  0  0  0  0
  3 17  1  0  0  0  0
  3 18  1  0  0  0  0
  4 19  1  0  0  0  0
  4 20  1  0  0  0  0
  4 21  1  0  0  0  0
  5  6  2  0  0  0  0
  5 10  1  0  0  0  0
  6  7  1  0  0  0  0
  6 22  1  0  0  0  0
  7  8  2  0  0  0  0
  7 23  1  0  0  0  0
  8  9  1  0  0  0  0
  8 11  1  0  0  0  0
  9 10  2  0  0  0  0
  9 24  1  0  0  0  0
 10 25  1  0  0  0  0
 11 12  1  0  0  0  0
 12 26  1  0  0  0  0
 12 27  1  0  0  0  0
 12 28  1  0  0  0  0
M  END
$$$$
