
 OpenBabel07222214433D

 15 15  0  0  0  0  0  0  0  0999 V2000
    1.1024    0.0699   -0.0325 C   0  0  0  0  0  0  0  0  0  0  0  0
    2.6246    0.0591   -0.0177 C   0  0  0  0  0  0  0  0  0  0  0  0
    3.0555   -1.1756    0.5488 O   0  0  0  0  0  0  0  0  0  0  0  0
    4.3787   -1.3154    0.6632 C   0  0  0  0  0  0  0  0  0  0  0  0
    5.1855   -0.3478    1.0357 N   0  0  0  0  0  0  0  0  0  0  0  0
    6.4795   -0.8378    1.1250 C   0  0  0  0  0  0  0  0  0  0  0  0
    6.6419   -2.1607    0.7739 C   0  0  0  0  0  0  0  0  0  0  0  0
    5.1181   -2.8373    0.3806 S   0  0  0  0  0  0  0  0  0  0  0  0
    0.7203    0.9767   -0.5110 H   0  0  0  0  0  0  0  0  0  0  0  0
    0.7040    0.0185    0.9865 H   0  0  0  0  0  0  0  0  0  0  0  0
    0.7101   -0.8006   -0.5698 H   0  0  0  0  0  0  0  0  0  0  0  0
    2.9882    0.9173    0.5587 H   0  0  0  0  0  0  0  0  0  0  0  0
    2.9908    0.1311   -1.0489 H   0  0  0  0  0  0  0  0  0  0  0  0
    7.2794   -0.1830    1.4506 H   0  0  0  0  0  0  0  0  0  0  0  0
    7.5492   -2.7481    0.7473 H   0  0  0  0  0  0  0  0  0  0  0  0
  1  2  1  0  0  0  0
  1  9  1  0  0  0  0
  1 10  1  0  0  0  0
  1 11  1  0  0  0  0
  2  3  1  0  0  0  0
  2 12  1  0  0  0  0
  2 13  1  0  0  0  0
  3  4  1  0  0  0  0
  4  5  2  0  0  0  0
  4  8  1  0  0  0  0
  5  6  1  0  0  0  0
  6  7  2  0  0  0  0
  6 14  1  0  0  0  0
  7  8  1  0  0  0  0
  7 15  1  0  0  0  0
M  END
$$$$
