
 OpenBabel07202215583D

 23 22  0  0  0  0  0  0  0  0999 V2000
    1.0717    0.0601    0.0173 C   0  0  0  0  0  0  0  0  0  0  0  0
    2.5921    0.0695    0.0092 C   0  0  0  0  0  0  0  0  0  0  0  0
    3.1289    1.1527   -0.9262 C   0  0  0  0  0  0  0  0  0  0  0  0
    4.6588    1.1742   -0.9448 C   0  0  0  0  0  0  0  0  0  0  0  0
    5.1908    2.2589   -1.8814 C   0  0  0  0  0  0  0  0  0  0  0  0
    6.6303    2.2475   -1.8716 O   0  0  0  0  0  0  0  0  0  0  0  0
    7.1959    3.1864   -2.6824 C   0  0  0  0  0  0  0  0  0  0  0  0
    6.5729    3.9855   -3.3724 O   0  0  0  0  0  0  0  0  0  0  0  0
    8.6969    3.1383   -2.6408 C   0  0  0  0  0  0  0  0  0  0  0  0
    0.6979   -0.7183    0.6895 H   0  0  0  0  0  0  0  0  0  0  0  0
    0.6776   -0.1365   -0.9850 H   0  0  0  0  0  0  0  0  0  0  0  0
    0.6776    1.0231    0.3578 H   0  0  0  0  0  0  0  0  0  0  0  0
    2.9578   -0.9140   -0.3080 H   0  0  0  0  0  0  0  0  0  0  0  0
    2.9578    0.2401    1.0284 H   0  0  0  0  0  0  0  0  0  0  0  0
    2.7492    2.1308   -0.6056 H   0  0  0  0  0  0  0  0  0  0  0  0
    2.7492    0.9779   -1.9406 H   0  0  0  0  0  0  0  0  0  0  0  0
    5.0441    0.1963   -1.2582 H   0  0  0  0  0  0  0  0  0  0  0  0
    5.0441    1.3419    0.0684 H   0  0  0  0  0  0  0  0  0  0  0  0
    4.8334    3.2398   -1.5461 H   0  0  0  0  0  0  0  0  0  0  0  0
    4.8334    2.0700   -2.9008 H   0  0  0  0  0  0  0  0  0  0  0  0
    9.0580    2.3573   -1.9664 H   0  0  0  0  0  0  0  0  0  0  0  0
    9.0800    4.1011   -2.2904 H   0  0  0  0  0  0  0  0  0  0  0  0
    9.0800    2.9319   -3.6445 H   0  0  0  0  0  0  0  0  0  0  0  0
  1  2  1  0  0  0  0
  1 10  1  0  0  0  0
  1 11  1  0  0  0  0
  1 12  1  0  0  0  0
  2  3  1  0  0  0  0
  2 13  1  0  0  0  0
  2 14  1  0  0  0  0
  3  4  1  0  0  0  0
  3 15  1  0  0  0  0
  3 16  1  0  0  0  0
  4  5  1  0  0  0  0
  4 17  1  0  0  0  0
  4 18  1  0  0  0  0
  5  6  1  0  0  0  0
  5 19  1  0  0  0  0
  5 20  1  0  0  0  0
  6  7  1  0  0  0  0
  7  8  2  0  0  0  0
  7  9  1  0  0  0  0
  9 21  1  0  0  0  0
  9 22  1  0  0  0  0
  9 23  1  0  0  0  0
M  END
$$$$
