
 OpenBabel07222214433D

 24 24  0  0  0  0  0  0  0  0999 V2000
    0.9350   -0.0166   -0.0723 C   0  0  0  0  0  0  0  0  0  0  0  0
    2.4521   -0.0137   -0.0831 C   0  0  0  0  0  0  0  0  0  0  0  0
    2.9572   -1.3327   -0.6442 C   0  0  0  0  0  0  0  0  0  0  0  0
    4.4759   -1.4002   -0.6226 C   0  0  0  0  0  0  0  0  0  0  0  0
    5.0261   -2.7086   -1.1869 C   0  0  0  0  0  0  0  0  0  0  0  0
    4.2318   -3.9567   -0.8551 C   0  0  0  0  0  0  0  0  0  0  0  0
    5.2830   -5.0162   -0.6727 C   0  0  0  0  0  0  0  0  0  0  0  0
    6.5017   -4.2240   -0.3167 C   0  0  0  0  0  0  0  0  0  0  0  0
    7.5284   -4.6839    0.1485 O   0  0  0  0  0  0  0  0  0  0  0  0
    6.3295   -2.9117   -0.6355 O   0  0  0  0  0  0  0  0  0  0  0  0
    0.5553    0.9251    0.3297 H   0  0  0  0  0  0  0  0  0  0  0  0
    0.5542   -0.8359    0.5475 H   0  0  0  0  0  0  0  0  0  0  0  0
    0.5439   -0.1487   -1.0862 H   0  0  0  0  0  0  0  0  0  0  0  0
    2.8252    0.1236    0.9390 H   0  0  0  0  0  0  0  0  0  0  0  0
    2.8246    0.8204   -0.6869 H   0  0  0  0  0  0  0  0  0  0  0  0
    2.5924   -1.4820   -1.6669 H   0  0  0  0  0  0  0  0  0  0  0  0
    2.5356   -2.1333   -0.0278 H   0  0  0  0  0  0  0  0  0  0  0  0
    4.8443   -1.2433    0.3997 H   0  0  0  0  0  0  0  0  0  0  0  0
    4.8926   -0.5689   -1.2082 H   0  0  0  0  0  0  0  0  0  0  0  0
    5.1344   -2.6142   -2.2743 H   0  0  0  0  0  0  0  0  0  0  0  0
    3.5156   -4.2055   -1.6463 H   0  0  0  0  0  0  0  0  0  0  0  0
    3.6668   -3.8624    0.0781 H   0  0  0  0  0  0  0  0  0  0  0  0
    5.4652   -5.5643   -1.5991 H   0  0  0  0  0  0  0  0  0  0  0  0
    5.0109   -5.6984    0.1367 H   0  0  0  0  0  0  0  0  0  0  0  0
  1  2  1  0  0  0  0
  1 11  1  0  0  0  0
  1 12  1  0  0  0  0
  1 13  1  0  0  0  0
  2  3  1  0  0  0  0
  2 14  1  0  0  0  0
  2 15  1  0  0  0  0
  3  4  1  0  0  0  0
  3 16  1  0  0  0  0
  3 17  1  0  0  0  0
  4  5  1  0  0  0  0
  4 18  1  0  0  0  0
  4 19  1  0  0  0  0
  5  6  1  0  0  0  0
  5 10  1  0  0  0  0
  5 20  1  0  0  0  0
  6  7  1  0  0  0  0
  6 21  1  0  0  0  0
  6 22  1  0  0  0  0
  7  8  1  0  0  0  0
  7 23  1  0  0  0  0
  7 24  1  0  0  0  0
  8  9  2  0  0  0  0
  8 10  1  0  0  0  0
M  END
$$$$
