
 OpenBabel07202215583D

 26 26  0  0  1  0  0  0  0  0999 V2000
    2.5341    0.0545    0.0744 C   0  0  0  0  0  0  0  0  0  0  0  0
    1.0377    0.0803    0.0274 C   0  0  0  0  0  0  0  0  0  0  0  0
    0.3196    1.2138   -0.0853 C   0  0  0  0  0  0  0  0  0  0  0  0
   -1.1844    1.2451   -0.1321 C   0  0  0  0  0  0  0  0  0  0  0  0
   -1.8590   -0.0750    0.3117 C   0  0  2  0  0  0  0  0  0  0  0  0
   -1.0788   -1.2701   -0.2637 C   0  0  0  0  0  0  0  0  0  0  0  0
    0.3913   -1.2705    0.1127 C   0  0  0  0  0  0  0  0  0  0  0  0
   -3.3416   -0.1188   -0.0702 C   0  0  0  0  0  0  0  0  0  0  0  0
   -3.8891   -1.0809   -0.8390 C   0  0  0  0  0  0  0  0  0  0  0  0
   -4.2332    0.9750    0.4522 C   0  0  0  0  0  0  0  0  0  0  0  0
    2.9722    1.0542    0.0156 H   0  0  0  0  0  0  0  0  0  0  0  0
    2.9224   -0.5362   -0.7629 H   0  0  0  0  0  0  0  0  0  0  0  0
    2.8659   -0.4131    1.0072 H   0  0  0  0  0  0  0  0  0  0  0  0
    0.8239    2.1750   -0.1450 H   0  0  0  0  0  0  0  0  0  0  0  0
   -1.4886    1.5029   -1.1545 H   0  0  0  0  0  0  0  0  0  0  0  0
   -1.5256    2.0653    0.5125 H   0  0  0  0  0  0  0  0  0  0  0  0
   -1.7974   -0.1346    1.4092 H   0  0  0  0  0  0  0  0  0  0  0  0
   -1.1507   -1.2572   -1.3603 H   0  0  0  0  0  0  0  0  0  0  0  0
   -1.5147   -2.2151    0.0832 H   0  0  0  0  0  0  0  0  0  0  0  0
    0.9051   -1.9714   -0.5572 H   0  0  0  0  0  0  0  0  0  0  0  0
    0.5076   -1.6521    1.1333 H   0  0  0  0  0  0  0  0  0  0  0  0
   -3.3141   -1.9043   -1.2487 H   0  0  0  0  0  0  0  0  0  0  0  0
   -4.9430   -1.0792   -1.0922 H   0  0  0  0  0  0  0  0  0  0  0  0
   -3.6949    1.6864    1.0842 H   0  0  0  0  0  0  0  0  0  0  0  0
   -5.0439    0.5538    1.0559 H   0  0  0  0  0  0  0  0  0  0  0  0
   -4.6679    1.5345   -0.3833 H   0  0  0  0  0  0  0  0  0  0  0  0
  1  2  1  0  0  0  0
  1 11  1  0  0  0  0
  1 12  1  0  0  0  0
  1 13  1  0  0  0  0
  2  3  2  0  0  0  0
  2  7  1  0  0  0  0
  3  4  1  0  0  0  0
  3 14  1  0  0  0  0
  4  5  1  0  0  0  0
  4 15  1  0  0  0  0
  4 16  1  0  0  0  0
  5  6  1  0  0  0  0
  5  8  1  0  0  0  0
  5 17  1  1  0  0  0
  6  7  1  0  0  0  0
  6 18  1  0  0  0  0
  6 19  1  0  0  0  0
  7 20  1  0  0  0  0
  7 21  1  0  0  0  0
  8  9  2  0  0  0  0
  8 10  1  0  0  0  0
  9 22  1  0  0  0  0
  9 23  1  0  0  0  0
 10 24  1  0  0  0  0
 10 25  1  0  0  0  0
 10 26  1  0  0  0  0
M  END
$$$$
