
 OpenBabel07202215583D

 35 34  0  0  0  0  0  0  0  0999 V2000
    1.0878    0.0020   -0.0261 C   0  0  0  0  0  0  0  0  0  0  0  0
    2.6062    0.0140   -0.0127 C   0  0  0  0  0  0  0  0  0  0  0  0
    3.1343    0.9702    1.0578 C   0  0  0  0  0  0  0  0  0  0  0  0
    4.6596    0.9810    1.0699 C   0  0  0  0  0  0  0  0  0  0  0  0
    5.2356    1.9272    2.1291 C   0  0  0  0  0  0  0  0  0  0  0  0
    6.7506    1.8923    2.0900 C   0  0  0  0  0  0  0  0  0  0  0  0
    7.4060    1.2020    1.3172 O   0  0  0  0  0  0  0  0  0  0  0  0
    7.2959    2.7267    3.0241 O   0  0  0  0  0  0  0  0  0  0  0  0
    8.7361    2.7194    3.0159 C   0  0  0  0  0  0  0  0  0  0  0  0
    9.2697    3.6725    4.0829 C   0  0  0  0  0  0  0  0  0  0  0  0
   10.7998    3.6889    4.1012 C   0  0  0  0  0  0  0  0  0  0  0  0
   11.3376    4.6418    5.1679 C   0  0  0  0  0  0  0  0  0  0  0  0
   12.8578    4.6497    5.1768 C   0  0  0  0  0  0  0  0  0  0  0  0
    0.7174   -0.6838   -0.7938 H   0  0  0  0  0  0  0  0  0  0  0  0
    0.6942    1.0008   -0.2399 H   0  0  0  0  0  0  0  0  0  0  0  0
    0.6942   -0.3227    0.9423 H   0  0  0  0  0  0  0  0  0  0  0  0
    2.9755    0.3145   -1.0006 H   0  0  0  0  0  0  0  0  0  0  0  0
    2.9755   -1.0014    0.1750 H   0  0  0  0  0  0  0  0  0  0  0  0
    2.7577    0.6640    2.0410 H   0  0  0  0  0  0  0  0  0  0  0  0
    2.7577    1.9816    0.8640 H   0  0  0  0  0  0  0  0  0  0  0  0
    5.0271    1.2753    0.0784 H   0  0  0  0  0  0  0  0  0  0  0  0
    5.0271   -0.0373    1.2509 H   0  0  0  0  0  0  0  0  0  0  0  0
    4.8945    1.6188    3.1235 H   0  0  0  0  0  0  0  0  0  0  0  0
    4.8945    2.9499    1.9343 H   0  0  0  0  0  0  0  0  0  0  0  0
    9.0948    3.0378    2.0294 H   0  0  0  0  0  0  0  0  0  0  0  0
    9.0948    1.7034    3.2215 H   0  0  0  0  0  0  0  0  0  0  0  0
    8.8854    3.3750    5.0659 H   0  0  0  0  0  0  0  0  0  0  0  0
    8.8854    4.6827    3.8977 H   0  0  0  0  0  0  0  0  0  0  0  0
   11.1789    3.9925    3.1174 H   0  0  0  0  0  0  0  0  0  0  0  0
   11.1789    2.6772    4.2923 H   0  0  0  0  0  0  0  0  0  0  0  0
   10.9720    4.3411    6.1566 H   0  0  0  0  0  0  0  0  0  0  0  0
   10.9720    5.6580    4.9803 H   0  0  0  0  0  0  0  0  0  0  0  0
   13.2517    3.6508    5.3902 H   0  0  0  0  0  0  0  0  0  0  0  0
   13.2317    5.3348    5.9437 H   0  0  0  0  0  0  0  0  0  0  0  0
   13.2517    4.9740    4.2082 H   0  0  0  0  0  0  0  0  0  0  0  0
  1  2  1  0  0  0  0
  1 14  1  0  0  0  0
  1 15  1  0  0  0  0
  1 16  1  0  0  0  0
  2  3  1  0  0  0  0
  2 17  1  0  0  0  0
  2 18  1  0  0  0  0
  3  4  1  0  0  0  0
  3 19  1  0  0  0  0
  3 20  1  0  0  0  0
  4  5  1  0  0  0  0
  4 21  1  0  0  0  0
  4 22  1  0  0  0  0
  5  6  1  0  0  0  0
  5 23  1  0  0  0  0
  5 24  1  0  0  0  0
  6  7  2  0  0  0  0
  6  8  1  0  0  0  0
  8  9  1  0  0  0  0
  9 10  1  0  0  0  0
  9 25  1  0  0  0  0
  9 26  1  0  0  0  0
 10 11  1  0  0  0  0
 10 27  1  0  0  0  0
 10 28  1  0  0  0  0
 11 12  1  0  0  0  0
 11 29  1  0  0  0  0
 11 30  1  0  0  0  0
 12 13  1  0  0  0  0
 12 31  1  0  0  0  0
 12 32  1  0  0  0  0
 13 33  1  0  0  0  0
 13 34  1  0  0  0  0
 13 35  1  0  0  0  0
M  END
$$$$
