
 OpenBabel07222214433D

 21 20  0  0  0  0  0  0  0  0999 V2000
    1.1086   -0.0898    0.0191 C   0  0  0  0  0  0  0  0  0  0  0  0
    2.6075   -0.0662    0.0731 C   0  0  0  0  0  0  0  0  0  0  0  0
    3.2408    0.3542    1.0355 O   0  0  0  0  0  0  0  0  0  0  0  0
    3.1571   -0.5664   -1.0720 O   0  0  0  0  0  0  0  0  0  0  0  0
    4.5906   -0.5537   -1.0430 C   0  0  0  0  0  0  0  0  0  0  0  0
    5.1574   -1.1125   -2.3222 C   0  0  0  0  0  0  0  0  0  0  0  0
    6.4808   -1.2217   -2.5721 C   0  0  0  0  0  0  0  0  0  0  0  0
    7.5350   -0.7899   -1.5836 C   0  0  0  0  0  0  0  0  0  0  0  0
    7.0074   -1.7874   -3.8672 C   0  0  0  0  0  0  0  0  0  0  0  0
    0.7122    0.3192    0.9552 H   0  0  0  0  0  0  0  0  0  0  0  0
    0.7465   -1.1156   -0.0813 H   0  0  0  0  0  0  0  0  0  0  0  0
    0.7465    0.5336   -0.8017 H   0  0  0  0  0  0  0  0  0  0  0  0
    4.9338   -1.1714   -0.2042 H   0  0  0  0  0  0  0  0  0  0  0  0
    4.9338    0.4814   -0.9262 H   0  0  0  0  0  0  0  0  0  0  0  0
    4.4424   -1.4406   -3.0733 H   0  0  0  0  0  0  0  0  0  0  0  0
    7.1089   -0.3865   -0.6603 H   0  0  0  0  0  0  0  0  0  0  0  0
    8.1654   -0.0047   -2.0120 H   0  0  0  0  0  0  0  0  0  0  0  0
    8.1654   -1.6377   -1.2987 H   0  0  0  0  0  0  0  0  0  0  0  0
    6.2016   -2.0843   -4.5469 H   0  0  0  0  0  0  0  0  0  0  0  0
    7.6237   -2.6737   -3.6795 H   0  0  0  0  0  0  0  0  0  0  0  0
    7.6237   -1.0474   -4.3899 H   0  0  0  0  0  0  0  0  0  0  0  0
  1  2  1  0  0  0  0
  1 10  1  0  0  0  0
  1 11  1  0  0  0  0
  1 12  1  0  0  0  0
  2  3  2  0  0  0  0
  2  4  1  0  0  0  0
  4  5  1  0  0  0  0
  5  6  1  0  0  0  0
  5 13  1  0  0  0  0
  5 14  1  0  0  0  0
  6  7  2  0  0  0  0
  6 15  1  0  0  0  0
  7  8  1  0  0  0  0
  7  9  1  0  0  0  0
  8 16  1  0  0  0  0
  8 17  1  0  0  0  0
  8 18  1  0  0  0  0
  9 19  1  0  0  0  0
  9 20  1  0  0  0  0
  9 21  1  0  0  0  0
M  END
$$$$
