
 OpenBabel07222214433D

 24 25  0  0  0  0  0  0  0  0999 V2000
    1.1542    0.1196    0.0072 C   0  0  0  0  0  0  0  0  0  0  0  0
    2.6574    0.0453   -0.0071 C   0  0  0  0  0  0  0  0  0  0  0  0
    3.2845   -0.9660   -0.3000 O   0  0  0  0  0  0  0  0  0  0  0  0
    3.2179    1.2346    0.3400 O   0  0  0  0  0  0  0  0  0  0  0  0
    4.6636    1.2527    0.3406 C   0  0  0  0  0  0  0  0  0  0  0  0
    5.1503    2.6409    0.7185 C   0  0  0  0  0  0  0  0  0  0  0  0
    6.2249    2.8388    1.6097 C   0  0  0  0  0  0  0  0  0  0  0  0
    6.5750    4.1392    1.9392 C   0  0  0  0  0  0  0  0  0  0  0  0
    5.9189    5.2231    1.4057 C   0  0  0  0  0  0  0  0  0  0  0  0
    4.8998    5.0721    0.4940 C   0  0  0  0  0  0  0  0  0  0  0  0
    4.5266    3.7717    0.1416 C   0  0  0  0  0  0  0  0  0  0  0  0
    6.3887    6.4087    1.8784 O   0  0  0  0  0  0  0  0  0  0  0  0
    7.3666    5.9485    2.8321 C   0  0  0  0  0  0  0  0  0  0  0  0
    7.5576    4.5157    2.8057 O   0  0  0  0  0  0  0  0  0  0  0  0
    0.7445   -0.8598   -0.2643 H   0  0  0  0  0  0  0  0  0  0  0  0
    0.7949    0.8473   -0.7253 H   0  0  0  0  0  0  0  0  0  0  0  0
    0.7890    0.3691    1.0069 H   0  0  0  0  0  0  0  0  0  0  0  0
    5.0394    1.0078   -0.6606 H   0  0  0  0  0  0  0  0  0  0  0  0
    5.0288    0.5133    1.0629 H   0  0  0  0  0  0  0  0  0  0  0  0
    6.7649    2.0072    2.0519 H   0  0  0  0  0  0  0  0  0  0  0  0
    4.3938    5.9323    0.0724 H   0  0  0  0  0  0  0  0  0  0  0  0
    3.7250    3.6315   -0.5808 H   0  0  0  0  0  0  0  0  0  0  0  0
    7.0378    6.2400    3.8378 H   0  0  0  0  0  0  0  0  0  0  0  0
    8.3215    6.4459    2.6246 H   0  0  0  0  0  0  0  0  0  0  0  0
  1  2  1  0  0  0  0
  1 15  1  0  0  0  0
  1 16  1  0  0  0  0
  1 17  1  0  0  0  0
  2  3  2  0  0  0  0
  2  4  1  0  0  0  0
  4  5  1  0  0  0  0
  5  6  1  0  0  0  0
  5 18  1  0  0  0  0
  5 19  1  0  0  0  0
  6  7  2  0  0  0  0
  6 11  1  0  0  0  0
  7  8  1  0  0  0  0
  7 20  1  0  0  0  0
  8  9  2  0  0  0  0
  8 14  1  0  0  0  0
  9 10  1  0  0  0  0
  9 12  1  0  0  0  0
 10 11  2  0  0  0  0
 10 21  1  0  0  0  0
 11 22  1  0  0  0  0
 12 13  1  0  0  0  0
 13 14  1  0  0  0  0
 13 23  1  0  0  0  0
 13 24  1  0  0  0  0
M  END
$$$$
