
 OpenBabel07222214433D

 31 31  0  0  1  0  0  0  0  0999 V2000
    0.9097    0.1523    0.0249 C   0  0  0  0  0  0  0  0  0  0  0  0
    2.4392    0.0914    0.1309 C   0  0  0  0  0  0  0  0  0  0  0  0
    2.8696    0.9040    1.3521 C   0  0  0  0  0  0  0  0  0  0  0  0
    2.9944   -1.3718    0.1007 C   0  0  2  0  0  0  0  0  0  0  0  0
    2.0729   -2.3788    0.8179 C   0  0  0  0  0  0  0  0  0  0  0  0
    2.6105   -3.8050    0.7719 C   0  0  0  0  0  0  0  0  0  0  0  0
    4.0448   -3.9001    1.2913 C   0  0  1  0  0  0  0  0  0  0  0  0
    4.5682   -5.3249    1.1795 C   0  0  0  0  0  0  0  0  0  0  0  0
    4.9668   -2.9368    0.5300 C   0  0  0  0  0  0  0  0  0  0  0  0
    4.4557   -1.5021    0.6084 C   0  0  2  0  0  0  0  0  0  0  0  0
    4.6117   -1.1061    1.9711 O   0  0  0  0  0  0  0  0  0  0  0  0
    0.5589    1.1888   -0.0018 H   0  0  0  0  0  0  0  0  0  0  0  0
    0.4323   -0.3172    0.8926 H   0  0  0  0  0  0  0  0  0  0  0  0
    0.5550   -0.3486   -0.8812 H   0  0  0  0  0  0  0  0  0  0  0  0
    2.8460    0.6065   -0.7512 H   0  0  0  0  0  0  0  0  0  0  0  0
    2.5742    0.4006    2.2783 H   0  0  0  0  0  0  0  0  0  0  0  0
    2.4179    1.8994    1.3527 H   0  0  0  0  0  0  0  0  0  0  0  0
    3.9526    1.0634    1.3547 H   0  0  0  0  0  0  0  0  0  0  0  0
    3.0003   -1.6704   -0.9602 H   0  0  0  0  0  0  0  0  0  0  0  0
    1.0843   -2.3969    0.3446 H   0  0  0  0  0  0  0  0  0  0  0  0
    1.9212   -2.0732    1.8590 H   0  0  0  0  0  0  0  0  0  0  0  0
    2.5606   -4.1737   -0.2606 H   0  0  0  0  0  0  0  0  0  0  0  0
    1.9517   -4.4471    1.3689 H   0  0  0  0  0  0  0  0  0  0  0  0
    4.0416   -3.6332    2.3563 H   0  0  0  0  0  0  0  0  0  0  0  0
    4.6051   -5.6486    0.1346 H   0  0  0  0  0  0  0  0  0  0  0  0
    3.9259   -6.0166    1.7329 H   0  0  0  0  0  0  0  0  0  0  0  0
    5.5785   -5.3927    1.5956 H   0  0  0  0  0  0  0  0  0  0  0  0
    5.0611   -3.2422   -0.5184 H   0  0  0  0  0  0  0  0  0  0  0  0
    5.9677   -2.9826    0.9788 H   0  0  0  0  0  0  0  0  0  0  0  0
    5.1080   -0.8521    0.0129 H   0  0  0  0  0  0  0  0  0  0  0  0
    3.8784   -1.4846    2.4900 H   0  0  0  0  0  0  0  0  0  0  0  0
  1  2  1  0  0  0  0
  1 12  1  0  0  0  0
  1 13  1  0  0  0  0
  1 14  1  0  0  0  0
  2  3  1  0  0  0  0
  2  4  1  0  0  0  0
  2 15  1  0  0  0  0
  3 16  1  0  0  0  0
  3 17  1  0  0  0  0
  3 18  1  0  0  0  0
  4  5  1  0  0  0  0
  4 10  1  0  0  0  0
  4 19  1  6  0  0  0
  5  6  1  0  0  0  0
  5 20  1  0  0  0  0
  5 21  1  0  0  0  0
  6  7  1  0  0  0  0
  6 22  1  0  0  0  0
  6 23  1  0  0  0  0
  7  8  1  0  0  0  0
  7  9  1  0  0  0  0
  7 24  1  1  0  0  0
  8 25  1  0  0  0  0
  8 26  1  0  0  0  0
  8 27  1  0  0  0  0
  9 10  1  0  0  0  0
  9 28  1  0  0  0  0
  9 29  1  0  0  0  0
 10 11  1  0  0  0  0
 10 30  1  6  0  0  0
 11 31  1  0  0  0  0
M  END
$$$$
