
 OpenBabel07222214433D

 34 33  0  0  0  0  0  0  0  0999 V2000
    1.1014    0.1297    0.0075 C   0  0  0  0  0  0  0  0  0  0  0  0
    2.5992    0.0814    0.0388 C   0  0  0  0  0  0  0  0  0  0  0  0
    3.2348   -0.8004    0.6080 O   0  0  0  0  0  0  0  0  0  0  0  0
    3.1453    1.1322   -0.6396 O   0  0  0  0  0  0  0  0  0  0  0  0
    4.5763    1.1044   -0.6217 C   0  0  0  0  0  0  0  0  0  0  0  0
    5.1475    2.2745   -1.3771 C   0  0  0  0  0  0  0  0  0  0  0  0
    6.4748    2.4890   -1.5156 C   0  0  0  0  0  0  0  0  0  0  0  0
    7.4983    1.5519   -0.9106 C   0  0  0  0  0  0  0  0  0  0  0  0
    6.9894    3.6947   -2.2939 C   0  0  0  0  0  0  0  0  0  0  0  0
    8.5163    3.7734   -2.3448 C   0  0  0  0  0  0  0  0  0  0  0  0
    9.0653    4.9426   -3.0996 C   0  0  0  0  0  0  0  0  0  0  0  0
   10.3889    5.1507   -3.2339 C   0  0  0  0  0  0  0  0  0  0  0  0
   11.4265    4.2303   -2.6397 C   0  0  0  0  0  0  0  0  0  0  0  0
   10.9096    6.3337   -3.9976 C   0  0  0  0  0  0  0  0  0  0  0  0
    0.7059   -0.7286    0.5617 H   0  0  0  0  0  0  0  0  0  0  0  0
    0.7402    0.0644   -1.0214 H   0  0  0  0  0  0  0  0  0  0  0  0
    0.7402    1.0405    0.4907 H   0  0  0  0  0  0  0  0  0  0  0  0
    4.9201    0.1772   -1.0967 H   0  0  0  0  0  0  0  0  0  0  0  0
    4.9201    1.1556    0.4189 H   0  0  0  0  0  0  0  0  0  0  0  0
    4.4422    2.9701   -1.8262 H   0  0  0  0  0  0  0  0  0  0  0  0
    7.0548    0.7140   -0.3696 H   0  0  0  0  0  0  0  0  0  0  0  0
    8.1293    2.0830   -0.1908 H   0  0  0  0  0  0  0  0  0  0  0  0
    8.1293    1.1146   -1.6909 H   0  0  0  0  0  0  0  0  0  0  0  0
    6.6058    4.6156   -1.8355 H   0  0  0  0  0  0  0  0  0  0  0  0
    6.6058    3.6560   -3.3218 H   0  0  0  0  0  0  0  0  0  0  0  0
    8.8999    2.8609   -2.8183 H   0  0  0  0  0  0  0  0  0  0  0  0
    8.8999    3.8293   -1.3181 H   0  0  0  0  0  0  0  0  0  0  0  0
    8.3550    5.6345   -3.5462 H   0  0  0  0  0  0  0  0  0  0  0  0
   10.9924    3.3858   -2.0945 H   0  0  0  0  0  0  0  0  0  0  0  0
   12.0547    4.7705   -1.9259 H   0  0  0  0  0  0  0  0  0  0  0  0
   12.0547    3.8022   -3.4259 H   0  0  0  0  0  0  0  0  0  0  0  0
   10.0962    6.9505   -4.3958 H   0  0  0  0  0  0  0  0  0  0  0  0
   11.5192    6.0034   -4.8442 H   0  0  0  0  0  0  0  0  0  0  0  0
   11.5192    6.9692   -3.3481 H   0  0  0  0  0  0  0  0  0  0  0  0
  1  2  1  0  0  0  0
  1 15  1  0  0  0  0
  1 16  1  0  0  0  0
  1 17  1  0  0  0  0
  2  3  2  0  0  0  0
  2  4  1  0  0  0  0
  4  5  1  0  0  0  0
  5  6  1  0  0  0  0
  5 18  1  0  0  0  0
  5 19  1  0  0  0  0
  6  7  2  0  0  0  0
  6 20  1  0  0  0  0
  7  8  1  0  0  0  0
  7  9  1  0  0  0  0
  8 21  1  0  0  0  0
  8 22  1  0  0  0  0
  8 23  1  0  0  0  0
  9 10  1  0  0  0  0
  9 24  1  0  0  0  0
  9 25  1  0  0  0  0
 10 11  1  0  0  0  0
 10 26  1  0  0  0  0
 10 27  1  0  0  0  0
 11 12  2  0  0  0  0
 11 28  1  0  0  0  0
 12 13  1  0  0  0  0
 12 14  1  0  0  0  0
 13 29  1  0  0  0  0
 13 30  1  0  0  0  0
 13 31  1  0  0  0  0
 14 32  1  0  0  0  0
 14 33  1  0  0  0  0
 14 34  1  0  0  0  0
M  END
$$$$
