
 OpenBabel07202215583D

 24 23  0  0  0  0  0  0  0  0999 V2000
    0.8753    0.0241    0.0681 C   0  0  0  0  0  0  0  0  0  0  0  0
    2.3924   -0.0070    0.1070 C   0  0  0  0  0  0  0  0  0  0  0  0
    2.8757    0.1271    1.5616 C   0  0  0  0  0  0  0  0  0  0  0  0
    2.9349   -1.2883   -0.5701 C   0  0  0  0  0  0  0  0  0  0  0  0
    4.4339   -1.1601   -0.6702 C   0  0  0  0  0  0  0  0  0  0  0  0
    4.9354   -0.0485   -0.4764 O   0  0  0  0  0  0  0  0  0  0  0  0
    5.2627   -2.3245   -1.1162 C   0  0  0  0  0  0  0  0  0  0  0  0
    6.7718   -2.1748   -1.0248 C   0  0  0  0  0  0  0  0  0  0  0  0
    7.4620   -0.9745   -0.4058 C   0  0  0  0  0  0  0  0  0  0  0  0
    7.4801   -3.0869   -1.4736 O   0  0  0  0  0  0  0  0  0  0  0  0
    0.5055    0.9536    0.5137 H   0  0  0  0  0  0  0  0  0  0  0  0
    0.4604   -0.8184    0.6277 H   0  0  0  0  0  0  0  0  0  0  0  0
    0.5131   -0.0250   -0.9630 H   0  0  0  0  0  0  0  0  0  0  0  0
    2.7494    0.8697   -0.4544 H   0  0  0  0  0  0  0  0  0  0  0  0
    2.5354   -0.7208    2.1622 H   0  0  0  0  0  0  0  0  0  0  0  0
    2.4972    1.0519    2.0082 H   0  0  0  0  0  0  0  0  0  0  0  0
    3.9663    0.1685    1.6538 H   0  0  0  0  0  0  0  0  0  0  0  0
    2.5510   -1.3706   -1.5947 H   0  0  0  0  0  0  0  0  0  0  0  0
    2.6464   -2.1835   -0.0098 H   0  0  0  0  0  0  0  0  0  0  0  0
    5.0165   -2.4986   -2.1718 H   0  0  0  0  0  0  0  0  0  0  0  0
    4.9828   -3.2201   -0.5473 H   0  0  0  0  0  0  0  0  0  0  0  0
    6.8427   -0.2130    0.0483 H   0  0  0  0  0  0  0  0  0  0  0  0
    8.0500   -0.4728   -1.1787 H   0  0  0  0  0  0  0  0  0  0  0  0
    8.0966   -1.3160    0.4133 H   0  0  0  0  0  0  0  0  0  0  0  0
  1  2  1  0  0  0  0
  1 11  1  0  0  0  0
  1 12  1  0  0  0  0
  1 13  1  0  0  0  0
  2  3  1  0  0  0  0
  2  4  1  0  0  0  0
  2 14  1  0  0  0  0
  3 15  1  0  0  0  0
  3 16  1  0  0  0  0
  3 17  1  0  0  0  0
  4  5  1  0  0  0  0
  4 18  1  0  0  0  0
  4 19  1  0  0  0  0
  5  6  2  0  0  0  0
  5  7  1  0  0  0  0
  7  8  1  0  0  0  0
  7 20  1  0  0  0  0
  7 21  1  0  0  0  0
  8  9  1  0  0  0  0
  8 10  2  0  0  0  0
  9 22  1  0  0  0  0
  9 23  1  0  0  0  0
  9 24  1  0  0  0  0
M  END
$$$$
