
 OpenBabel07222214433D

 24 24  0  0  0  0  0  0  0  0999 V2000
    1.0222   -0.1515   -0.0712 C   0  0  0  0  0  0  0  0  0  0  0  0
    2.4454   -0.1284   -0.0563 O   0  0  0  0  0  0  0  0  0  0  0  0
    3.0339    1.1120   -0.0599 C   0  0  0  0  0  0  0  0  0  0  0  0
    4.4437    1.0805   -0.0775 C   0  0  0  0  0  0  0  0  0  0  0  0
    5.2047    2.2660   -0.0994 C   0  0  0  0  0  0  0  0  0  0  0  0
    6.7270    2.1928   -0.1204 C   0  0  0  0  0  0  0  0  0  0  0  0
    7.4542    3.5163   -0.1466 C   0  0  0  0  0  0  0  0  0  0  0  0
    8.7855    3.6753   -0.1682 C   0  0  0  0  0  0  0  0  0  0  0  0
    4.5038    3.4791   -0.1014 C   0  0  0  0  0  0  0  0  0  0  0  0
    3.1164    3.5276   -0.0720 C   0  0  0  0  0  0  0  0  0  0  0  0
    2.3819    2.3523   -0.0489 C   0  0  0  0  0  0  0  0  0  0  0  0
    1.0202    2.4676   -0.0144 O   0  0  0  0  0  0  0  0  0  0  0  0
    0.6912   -1.1924   -0.0836 H   0  0  0  0  0  0  0  0  0  0  0  0
    0.6301    0.3205   -0.9796 H   0  0  0  0  0  0  0  0  0  0  0  0
    0.6152    0.3017    0.8397 H   0  0  0  0  0  0  0  0  0  0  0  0
    4.9439    0.1116   -0.0753 H   0  0  0  0  0  0  0  0  0  0  0  0
    7.0260    1.6149   -1.0052 H   0  0  0  0  0  0  0  0  0  0  0  0
    7.0511    1.6367    0.7696 H   0  0  0  0  0  0  0  0  0  0  0  0
    6.8979    4.4426   -0.1491 H   0  0  0  0  0  0  0  0  0  0  0  0
    9.4664    2.8365   -0.1682 H   0  0  0  0  0  0  0  0  0  0  0  0
    9.1959    4.6810   -0.1863 H   0  0  0  0  0  0  0  0  0  0  0  0
    5.0003    4.4394   -0.1245 H   0  0  0  0  0  0  0  0  0  0  0  0
    2.6368    4.5004   -0.0694 H   0  0  0  0  0  0  0  0  0  0  0  0
    0.7750    3.4058    0.0102 H   0  0  0  0  0  0  0  0  0  0  0  0
  1  2  1  0  0  0  0
  1 13  1  0  0  0  0
  1 14  1  0  0  0  0
  1 15  1  0  0  0  0
  2  3  1  0  0  0  0
  3  4  1  0  0  0  0
  3 11  2  0  0  0  0
  4  5  2  0  0  0  0
  4 16  1  0  0  0  0
  5  6  1  0  0  0  0
  5  9  1  0  0  0  0
  6  7  1  0  0  0  0
  6 17  1  0  0  0  0
  6 18  1  0  0  0  0
  7  8  2  0  0  0  0
  7 19  1  0  0  0  0
  8 20  1  0  0  0  0
  8 21  1  0  0  0  0
  9 10  2  0  0  0  0
  9 22  1  0  0  0  0
 10 11  1  0  0  0  0
 10 23  1  0  0  0  0
 11 12  1  0  0  0  0
 12 24  1  0  0  0  0
M  END
$$$$
