
 OpenBabel07202215583D

 25 24  0  0  0  0  0  0  0  0999 V2000
    0.9835   -0.0802    0.0543 C   0  0  0  0  0  0  0  0  0  0  0  0
    2.4999   -0.0737    0.0680 C   0  0  0  0  0  0  0  0  0  0  0  0
    3.0205    0.5379    1.3653 C   0  0  0  0  0  0  0  0  0  0  0  0
    4.5400    0.5430    1.3761 C   0  0  0  0  0  0  0  0  0  0  0  0
    5.0965    1.1487    2.6609 C   0  0  0  0  0  0  0  0  0  0  0  0
    6.6112    1.1311    2.6234 C   0  0  0  0  0  0  0  0  0  0  0  0
    7.2275    0.6753    1.6567 O   0  0  0  0  0  0  0  0  0  0  0  0
    7.3343    1.6986    3.8272 C   0  0  0  0  0  0  0  0  0  0  0  0
    8.8381    1.6051    3.6288 C   0  0  0  0  0  0  0  0  0  0  0  0
    0.6129   -0.5189   -0.8761 H   0  0  0  0  0  0  0  0  0  0  0  0
    0.5924    0.9389    0.1352 H   0  0  0  0  0  0  0  0  0  0  0  0
    0.5924   -0.6662    0.8920 H   0  0  0  0  0  0  0  0  0  0  0  0
    2.8719    0.4965   -0.7917 H   0  0  0  0  0  0  0  0  0  0  0  0
    2.8719   -1.0998   -0.0391 H   0  0  0  0  0  0  0  0  0  0  0  0
    2.6471   -0.0349    2.2225 H   0  0  0  0  0  0  0  0  0  0  0  0
    2.6471    1.5636    1.4688 H   0  0  0  0  0  0  0  0  0  0  0  0
    4.9114    1.1089    0.5118 H   0  0  0  0  0  0  0  0  0  0  0  0
    4.9114   -0.4839    1.2627 H   0  0  0  0  0  0  0  0  0  0  0  0
    4.7578    0.5731    3.5293 H   0  0  0  0  0  0  0  0  0  0  0  0
    4.7578    2.1849    2.7694 H   0  0  0  0  0  0  0  0  0  0  0  0
    7.0387    1.1327    4.7167 H   0  0  0  0  0  0  0  0  0  0  0  0
    7.0387    2.7449    3.9566 H   0  0  0  0  0  0  0  0  0  0  0  0
    9.1445    0.5621    3.4890 H   0  0  0  0  0  0  0  0  0  0  0  0
    9.3756    2.0106    4.4889 H   0  0  0  0  0  0  0  0  0  0  0  0
    9.1445    2.1608    2.7352 H   0  0  0  0  0  0  0  0  0  0  0  0
  1  2  1  0  0  0  0
  1 10  1  0  0  0  0
  1 11  1  0  0  0  0
  1 12  1  0  0  0  0
  2  3  1  0  0  0  0
  2 13  1  0  0  0  0
  2 14  1  0  0  0  0
  3  4  1  0  0  0  0
  3 15  1  0  0  0  0
  3 16  1  0  0  0  0
  4  5  1  0  0  0  0
  4 17  1  0  0  0  0
  4 18  1  0  0  0  0
  5  6  1  0  0  0  0
  5 19  1  0  0  0  0
  5 20  1  0  0  0  0
  6  7  2  0  0  0  0
  6  8  1  0  0  0  0
  8  9  1  0  0  0  0
  8 21  1  0  0  0  0
  8 22  1  0  0  0  0
  9 23  1  0  0  0  0
  9 24  1  0  0  0  0
  9 25  1  0  0  0  0
M  END
$$$$
