
 OpenBabel07202215583D

 29 29  0  0  1  0  0  0  0  0999 V2000
    0.9644    0.1126    0.1412 C   0  0  0  0  0  0  0  0  0  0  0  0
    2.4903    0.1155    0.0972 C   0  0  2  0  0  0  0  0  0  0  0  0
    3.0375    1.1157   -0.9416 C   0  0  0  0  0  0  0  0  0  0  0  0
    2.7378    0.6814   -2.3777 C   0  0  0  0  0  0  0  0  0  0  0  0
    3.2776   -0.7384   -2.6987 C   0  0  2  0  0  0  0  0  0  0  0  0
    2.7062   -1.7182   -1.6474 C   0  0  0  0  0  0  0  0  0  0  0  0
    2.9983   -1.3004   -0.1855 C   0  0  1  0  0  0  0  0  0  0  0  0
    4.3716   -1.3329    0.1951 O   0  0  0  0  0  0  0  0  0  0  0  0
    4.8053   -0.8195   -2.8262 C   0  0  0  0  0  0  0  0  0  0  0  0
    5.5747   -1.7455   -2.2348 C   0  0  0  0  0  0  0  0  0  0  0  0
    5.4956    0.1959   -3.6904 C   0  0  0  0  0  0  0  0  0  0  0  0
    0.5892    1.0917    0.4448 H   0  0  0  0  0  0  0  0  0  0  0  0
    0.6090   -0.6356    0.8575 H   0  0  0  0  0  0  0  0  0  0  0  0
    0.5178   -0.1305   -0.8268 H   0  0  0  0  0  0  0  0  0  0  0  0
    2.8627    0.4280    1.0817 H   0  0  0  0  0  0  0  0  0  0  0  0
    4.1236    1.2277   -0.8299 H   0  0  0  0  0  0  0  0  0  0  0  0
    2.6189    2.1108   -0.7533 H   0  0  0  0  0  0  0  0  0  0  0  0
    3.1252    1.4322   -3.0749 H   0  0  0  0  0  0  0  0  0  0  0  0
    1.6503    0.6946   -2.5318 H   0  0  0  0  0  0  0  0  0  0  0  0
    2.8668   -1.0196   -3.6802 H   0  0  0  0  0  0  0  0  0  0  0  0
    3.0494   -2.7389   -1.8479 H   0  0  0  0  0  0  0  0  0  0  0  0
    1.6170   -1.7637   -1.7855 H   0  0  0  0  0  0  0  0  0  0  0  0
    2.5179   -2.0288    0.4743 H   0  0  0  0  0  0  0  0  0  0  0  0
    4.8361   -0.6224   -0.2835 H   0  0  0  0  0  0  0  0  0  0  0  0
    5.1752   -2.5573   -1.6281 H   0  0  0  0  0  0  0  0  0  0  0  0
    6.6593   -1.6850   -2.2419 H   0  0  0  0  0  0  0  0  0  0  0  0
    4.7967    0.7504   -4.3193 H   0  0  0  0  0  0  0  0  0  0  0  0
    6.1941   -0.3112   -4.3651 H   0  0  0  0  0  0  0  0  0  0  0  0
    6.0510    0.9035   -3.0673 H   0  0  0  0  0  0  0  0  0  0  0  0
  1  2  1  0  0  0  0
  1 12  1  0  0  0  0
  1 13  1  0  0  0  0
  1 14  1  0  0  0  0
  2  3  1  0  0  0  0
  2  7  1  0  0  0  0
  2 15  1  1  0  0  0
  3  4  1  0  0  0  0
  3 16  1  0  0  0  0
  3 17  1  0  0  0  0
  4  5  1  0  0  0  0
  4 18  1  0  0  0  0
  4 19  1  0  0  0  0
  5  6  1  0  0  0  0
  5  9  1  0  0  0  0
  5 20  1  6  0  0  0
  6  7  1  0  0  0  0
  6 21  1  0  0  0  0
  6 22  1  0  0  0  0
  7  8  1  0  0  0  0
  7 23  1  1  0  0  0
  8 24  1  0  0  0  0
  9 10  2  0  0  0  0
  9 11  1  0  0  0  0
 10 25  1  0  0  0  0
 10 26  1  0  0  0  0
 11 27  1  0  0  0  0
 11 28  1  0  0  0  0
 11 29  1  0  0  0  0
M  END
$$$$
