
 OpenBabel07202215583D

 19 19  0  0  0  0  0  0  0  0999 V2000
    0.9187    0.0821   -0.0108 S   0  0  0  0  0  0  0  0  0  0  0  0
    2.7375    0.1274    0.0084 C   0  0  0  0  0  0  0  0  0  0  0  0
    3.2953   -1.1459   -0.6217 C   0  0  0  0  0  0  0  0  0  0  0  0
    4.8047   -1.1876   -0.6106 C   0  0  0  0  0  0  0  0  0  0  0  0
    5.5278   -1.1869   -1.8117 C   0  0  0  0  0  0  0  0  0  0  0  0
    6.9154   -1.3399   -1.7962 C   0  0  0  0  0  0  0  0  0  0  0  0
    7.5953   -1.4409   -0.5853 C   0  0  0  0  0  0  0  0  0  0  0  0
    6.8888   -1.4056    0.6160 C   0  0  0  0  0  0  0  0  0  0  0  0
    5.4990   -1.2904    0.6015 C   0  0  0  0  0  0  0  0  0  0  0  0
    0.7249    1.2648    0.5892 H   0  0  0  0  0  0  0  0  0  0  0  0
    3.0651    0.2332    1.0479 H   0  0  0  0  0  0  0  0  0  0  0  0
    3.0775    1.0136   -0.5378 H   0  0  0  0  0  0  0  0  0  0  0  0
    2.9328   -1.2450   -1.6531 H   0  0  0  0  0  0  0  0  0  0  0  0
    2.9367   -2.0333   -0.0828 H   0  0  0  0  0  0  0  0  0  0  0  0
    5.0165   -1.0877   -2.7658 H   0  0  0  0  0  0  0  0  0  0  0  0
    7.4646   -1.3941   -2.7335 H   0  0  0  0  0  0  0  0  0  0  0  0
    8.6762   -1.5527   -0.5748 H   0  0  0  0  0  0  0  0  0  0  0  0
    7.4161   -1.4879    1.5615 H   0  0  0  0  0  0  0  0  0  0  0  0
    4.9588   -1.2995    1.5463 H   0  0  0  0  0  0  0  0  0  0  0  0
  1  2  1  0  0  0  0
  1 10  1  0  0  0  0
  2  3  1  0  0  0  0
  2 11  1  0  0  0  0
  2 12  1  0  0  0  0
  3  4  1  0  0  0  0
  3 13  1  0  0  0  0
  3 14  1  0  0  0  0
  4  5  1  0  0  0  0
  4  9  2  0  0  0  0
  5  6  2  0  0  0  0
  5 15  1  0  0  0  0
  6  7  1  0  0  0  0
  6 16  1  0  0  0  0
  7  8  2  0  0  0  0
  7 17  1  0  0  0  0
  8  9  1  0  0  0  0
  8 18  1  0  0  0  0
  9 19  1  0  0  0  0
M  END
$$$$
