
 OpenBabel07202215583D

 34 33  0  0  0  0  0  0  0  0999 V2000
    1.0163   -0.0857   -0.0079 C   0  0  0  0  0  0  0  0  0  0  0  0
    2.5142   -0.0699    0.0475 C   0  0  0  0  0  0  0  0  0  0  0  0
    3.1498    0.2174    1.0569 O   0  0  0  0  0  0  0  0  0  0  0  0
    3.0603   -0.4123   -1.1555 O   0  0  0  0  0  0  0  0  0  0  0  0
    4.4913   -0.4033   -1.1237 C   0  0  0  0  0  0  0  0  0  0  0  0
    5.0625   -0.7846   -2.4632 C   0  0  0  0  0  0  0  0  0  0  0  0
    6.3897   -0.8545   -2.7088 C   0  0  0  0  0  0  0  0  0  0  0  0
    7.4133   -0.5491   -1.6360 C   0  0  0  0  0  0  0  0  0  0  0  0
    6.9044   -1.2474   -4.0890 C   0  0  0  0  0  0  0  0  0  0  0  0
    8.4313   -1.2730   -4.1792 C   0  0  0  0  0  0  0  0  0  0  0  0
    8.9802   -1.6540   -5.5177 C   0  0  0  0  0  0  0  0  0  0  0  0
   10.3039   -1.7219   -5.7559 C   0  0  0  0  0  0  0  0  0  0  0  0
   11.3415   -1.4219   -4.7022 C   0  0  0  0  0  0  0  0  0  0  0  0
   10.8245   -2.1073   -7.1102 C   0  0  0  0  0  0  0  0  0  0  0  0
    0.6208    0.1940    0.9747 H   0  0  0  0  0  0  0  0  0  0  0  0
    0.6551   -1.0889   -0.2454 H   0  0  0  0  0  0  0  0  0  0  0  0
    0.6551    0.6421   -0.7382 H   0  0  0  0  0  0  0  0  0  0  0  0
    4.8351   -1.1280   -0.3753 H   0  0  0  0  0  0  0  0  0  0  0  0
    4.8351    0.6070   -0.8691 H   0  0  0  0  0  0  0  0  0  0  0  0
    4.3572   -1.0113   -3.2596 H   0  0  0  0  0  0  0  0  0  0  0  0
    6.9698   -0.2761   -0.6767 H   0  0  0  0  0  0  0  0  0  0  0  0
    8.0442    0.2942   -1.9341 H   0  0  0  0  0  0  0  0  0  0  0  0
    8.0442   -1.4230   -1.4453 H   0  0  0  0  0  0  0  0  0  0  0  0
    6.5207   -0.5404   -4.8362 H   0  0  0  0  0  0  0  0  0  0  0  0
    6.5207   -2.2419   -4.3519 H   0  0  0  0  0  0  0  0  0  0  0  0
    8.8149   -1.9922   -3.4444 H   0  0  0  0  0  0  0  0  0  0  0  0
    8.8149   -0.2747   -3.9333 H   0  0  0  0  0  0  0  0  0  0  0  0
    8.2700   -1.8795   -6.3097 H   0  0  0  0  0  0  0  0  0  0  0  0
   10.9074   -1.1467   -3.7354 H   0  0  0  0  0  0  0  0  0  0  0  0
   11.9697   -0.5816   -5.0108 H   0  0  0  0  0  0  0  0  0  0  0  0
   11.9697   -2.2988   -4.5220 H   0  0  0  0  0  0  0  0  0  0  0  0
   10.0111   -2.3083   -7.8163 H   0  0  0  0  0  0  0  0  0  0  0  0
   11.4342   -3.0134   -7.0412 H   0  0  0  0  0  0  0  0  0  0  0  0
   11.4342   -1.3007   -7.5287 H   0  0  0  0  0  0  0  0  0  0  0  0
  1  2  1  0  0  0  0
  1 15  1  0  0  0  0
  1 16  1  0  0  0  0
  1 17  1  0  0  0  0
  2  3  2  0  0  0  0
  2  4  1  0  0  0  0
  4  5  1  0  0  0  0
  5  6  1  0  0  0  0
  5 18  1  0  0  0  0
  5 19  1  0  0  0  0
  6  7  2  0  0  0  0
  6 20  1  0  0  0  0
  7  8  1  0  0  0  0
  7  9  1  0  0  0  0
  8 21  1  0  0  0  0
  8 22  1  0  0  0  0
  8 23  1  0  0  0  0
  9 10  1  0  0  0  0
  9 24  1  0  0  0  0
  9 25  1  0  0  0  0
 10 11  1  0  0  0  0
 10 26  1  0  0  0  0
 10 27  1  0  0  0  0
 11 12  2  0  0  0  0
 11 28  1  0  0  0  0
 12 13  1  0  0  0  0
 12 14  1  0  0  0  0
 13 29  1  0  0  0  0
 13 30  1  0  0  0  0
 13 31  1  0  0  0  0
 14 32  1  0  0  0  0
 14 33  1  0  0  0  0
 14 34  1  0  0  0  0
M  END
$$$$
