
 OpenBabel07122215493D

 32 31  0  0  0  0  0  0  0  0999 V2000
    0.9666    0.0986    0.0055 C   0  0  0  0  0  0  0  0  0  0  0  0
    2.4854    0.0971   -0.0066 C   0  0  0  0  0  0  0  0  0  0  0  0
    3.0152   -0.0883   -1.4267 C   0  0  0  0  0  0  0  0  0  0  0  0
    4.5421   -0.0914   -1.4506 C   0  0  0  0  0  0  0  0  0  0  0  0
    5.0733   -0.2772   -2.8736 C   0  0  0  0  0  0  0  0  0  0  0  0
    6.5995   -0.2807   -2.9007 C   0  0  0  0  0  0  0  0  0  0  0  0
    7.0699   -0.4570   -4.2506 O   0  0  0  0  0  0  0  0  0  0  0  0
    8.4330   -0.4695   -4.3467 C   0  0  0  0  0  0  0  0  0  0  0  0
    9.1914   -0.3448   -3.3916 O   0  0  0  0  0  0  0  0  0  0  0  0
    8.8887   -0.6568   -5.7810 C   0  0  0  0  0  0  0  0  0  0  0  0
   10.4197   -0.6669   -5.8587 C   0  0  0  0  0  0  0  0  0  0  0  0
   10.9348   -0.8519   -7.2756 C   0  0  0  0  0  0  0  0  0  0  0  0
    0.5932    0.2317    1.0250 H   0  0  0  0  0  0  0  0  0  0  0  0
    0.5744   -0.8467   -0.3829 H   0  0  0  0  0  0  0  0  0  0  0  0
    0.5744    0.9126   -0.6126 H   0  0  0  0  0  0  0  0  0  0  0  0
    2.8534   -0.7089    0.6391 H   0  0  0  0  0  0  0  0  0  0  0  0
    2.8534    1.0418    0.4105 H   0  0  0  0  0  0  0  0  0  0  0  0
    2.6378    0.7182   -2.0672 H   0  0  0  0  0  0  0  0  0  0  0  0
    2.6378   -1.0322   -1.8387 H   0  0  0  0  0  0  0  0  0  0  0  0
    4.9151   -0.8970   -0.8061 H   0  0  0  0  0  0  0  0  0  0  0  0
    4.9151    0.8526   -1.0345 H   0  0  0  0  0  0  0  0  0  0  0  0
    4.6956    0.5221   -3.5227 H   0  0  0  0  0  0  0  0  0  0  0  0
    4.6956   -1.2164   -3.2958 H   0  0  0  0  0  0  0  0  0  0  0  0
    6.9727   -1.1016   -2.2761 H   0  0  0  0  0  0  0  0  0  0  0  0
    6.9727    0.6729   -2.5078 H   0  0  0  0  0  0  0  0  0  0  0  0
    8.4947    0.1634   -6.3915 H   0  0  0  0  0  0  0  0  0  0  0  0
    8.4947   -1.6061   -6.1605 H   0  0  0  0  0  0  0  0  0  0  0  0
   10.8170   -1.4717   -5.2277 H   0  0  0  0  0  0  0  0  0  0  0  0
   10.8170    0.2729   -5.4554 H   0  0  0  0  0  0  0  0  0  0  0  0
   10.5948   -1.8029   -7.6966 H   0  0  0  0  0  0  0  0  0  0  0  0
   12.0303   -0.8525   -7.2808 H   0  0  0  0  0  0  0  0  0  0  0  0
   10.5948   -0.0408   -7.9266 H   0  0  0  0  0  0  0  0  0  0  0  0
  1  2  1  0  0  0  0
  1 13  1  0  0  0  0
  1 14  1  0  0  0  0
  1 15  1  0  0  0  0
  2  3  1  0  0  0  0
  2 16  1  0  0  0  0
  2 17  1  0  0  0  0
  3  4  1  0  0  0  0
  3 18  1  0  0  0  0
  3 19  1  0  0  0  0
  4  5  1  0  0  0  0
  4 20  1  0  0  0  0
  4 21  1  0  0  0  0
  5  6  1  0  0  0  0
  5 22  1  0  0  0  0
  5 23  1  0  0  0  0
  6  7  1  0  0  0  0
  6 24  1  0  0  0  0
  6 25  1  0  0  0  0
  7  8  1  0  0  0  0
  8  9  2  0  0  0  0
  8 10  1  0  0  0  0
 10 11  1  0  0  0  0
 10 26  1  0  0  0  0
 10 27  1  0  0  0  0
 11 12  1  0  0  0  0
 11 28  1  0  0  0  0
 11 29  1  0  0  0  0
 12 30  1  0  0  0  0
 12 31  1  0  0  0  0
 12 32  1  0  0  0  0
M  END
$$$$
