
 OpenBabel07222214443D

 25 25  0  0  0  0  0  0  0  0999 V2000
    0.8936   -0.0324   -0.0070 C   0  0  0  0  0  0  0  0  0  0  0  0
    2.4230   -0.1086    0.0027 C   0  0  0  0  0  0  0  0  0  0  0  0
    2.8043   -1.5876   -0.1021 C   0  0  0  0  0  0  0  0  0  0  0  0
    3.0110    0.7850   -1.1238 C   0  0  0  0  0  0  0  0  0  0  0  0
    4.5243    0.8503   -1.1806 C   0  0  0  0  0  0  0  0  0  0  0  0
    5.2972   -0.3073   -1.3385 C   0  0  0  0  0  0  0  0  0  0  0  0
    6.6850   -0.2840   -1.2448 C   0  0  0  0  0  0  0  0  0  0  0  0
    7.3270    0.9405   -1.1489 C   0  0  0  0  0  0  0  0  0  0  0  0
    6.5955    2.1191   -1.1100 C   0  0  0  0  0  0  0  0  0  0  0  0
    5.1965    2.0788   -1.1043 C   0  0  0  0  0  0  0  0  0  0  0  0
    8.6869    1.0133   -1.1228 O   0  0  0  0  0  0  0  0  0  0  0  0
    0.4743   -0.6673    0.7822 H   0  0  0  0  0  0  0  0  0  0  0  0
    0.4914   -0.3828   -0.9642 H   0  0  0  0  0  0  0  0  0  0  0  0
    0.5422    0.9886    0.1642 H   0  0  0  0  0  0  0  0  0  0  0  0
    2.7796    0.2669    0.9707 H   0  0  0  0  0  0  0  0  0  0  0  0
    2.6352   -1.9614   -1.1185 H   0  0  0  0  0  0  0  0  0  0  0  0
    2.2272   -2.2075    0.5891 H   0  0  0  0  0  0  0  0  0  0  0  0
    3.8470   -1.7503    0.1793 H   0  0  0  0  0  0  0  0  0  0  0  0
    2.6227    1.8034   -0.9727 H   0  0  0  0  0  0  0  0  0  0  0  0
    2.6371    0.4678   -2.1052 H   0  0  0  0  0  0  0  0  0  0  0  0
    4.8321   -1.2685   -1.5312 H   0  0  0  0  0  0  0  0  0  0  0  0
    7.2289   -1.2210   -1.2607 H   0  0  0  0  0  0  0  0  0  0  0  0
    7.1145    3.0737   -1.0781 H   0  0  0  0  0  0  0  0  0  0  0  0
    4.6424    3.0123   -1.0515 H   0  0  0  0  0  0  0  0  0  0  0  0
    9.0399    0.1121   -1.2032 H   0  0  0  0  0  0  0  0  0  0  0  0
  1  2  1  0  0  0  0
  1 12  1  0  0  0  0
  1 13  1  0  0  0  0
  1 14  1  0  0  0  0
  2  3  1  0  0  0  0
  2  4  1  0  0  0  0
  2 15  1  0  0  0  0
  3 16  1  0  0  0  0
  3 17  1  0  0  0  0
  3 18  1  0  0  0  0
  4  5  1  0  0  0  0
  4 19  1  0  0  0  0
  4 20  1  0  0  0  0
  5  6  2  0  0  0  0
  5 10  1  0  0  0  0
  6  7  1  0  0  0  0
  6 21  1  0  0  0  0
  7  8  2  0  0  0  0
  7 22  1  0  0  0  0
  8  9  1  0  0  0  0
  8 11  1  0  0  0  0
  9 10  2  0  0  0  0
  9 23  1  0  0  0  0
 10 24  1  0  0  0  0
 11 25  1  0  0  0  0
M  END
$$$$
