
 OpenBabel07222214433D

 17 16  0  0  0  0  0  0  0  0999 V2000
    0.9954   -0.0890   -0.0485 C   0  0  0  0  0  0  0  0  0  0  0  0
    2.5263   -0.1011    0.0164 C   0  0  0  0  0  0  0  0  0  0  0  0
    2.9442   -0.5792    1.4110 C   0  0  0  0  0  0  0  0  0  0  0  0
    3.1106   -1.0002   -1.0786 C   0  0  0  0  0  0  0  0  0  0  0  0
    4.6221   -1.0517   -1.2021 C   0  0  0  0  0  0  0  0  0  0  0  0
    5.3475   -0.2089   -0.4452 O   0  0  0  0  0  0  0  0  0  0  0  0
    5.1776   -1.8198   -1.9832 O   0  0  0  0  0  0  0  0  0  0  0  0
    0.5891    0.5881    0.7114 H   0  0  0  0  0  0  0  0  0  0  0  0
    0.5854   -1.0875    0.1400 H   0  0  0  0  0  0  0  0  0  0  0  0
    0.6343    0.2482   -1.0252 H   0  0  0  0  0  0  0  0  0  0  0  0
    2.8732    0.9269   -0.1490 H   0  0  0  0  0  0  0  0  0  0  0  0
    2.5498   -1.5802    1.6097 H   0  0  0  0  0  0  0  0  0  0  0  0
    2.5715    0.1086    2.1750 H   0  0  0  0  0  0  0  0  0  0  0  0
    4.0259   -0.6430    1.5454 H   0  0  0  0  0  0  0  0  0  0  0  0
    2.7295   -0.6734   -2.0555 H   0  0  0  0  0  0  0  0  0  0  0  0
    2.7607   -2.0290   -0.9206 H   0  0  0  0  0  0  0  0  0  0  0  0
    4.8687    0.4040    0.1396 H   0  0  0  0  0  0  0  0  0  0  0  0
  1  2  1  0  0  0  0
  1  8  1  0  0  0  0
  1  9  1  0  0  0  0
  1 10  1  0  0  0  0
  2  3  1  0  0  0  0
  2  4  1  0  0  0  0
  2 11  1  0  0  0  0
  3 12  1  0  0  0  0
  3 13  1  0  0  0  0
  3 14  1  0  0  0  0
  4  5  1  0  0  0  0
  4 15  1  0  0  0  0
  4 16  1  0  0  0  0
  5  6  1  0  0  0  0
  5  7  2  0  0  0  0
  6 17  1  0  0  0  0
M  END
$$$$
