
 OpenBabel07202215583D

 31 31  0  0  0  0  0  0  0  0999 V2000
    0.8471    0.1606   -0.1371 C   0  0  0  0  0  0  0  0  0  0  0  0
    2.3711    0.0324   -0.0486 C   0  0  0  0  0  0  0  0  0  0  0  0
    2.7387    0.0803    1.4387 C   0  0  0  0  0  0  0  0  0  0  0  0
    2.9816   -1.1517   -0.8942 C   0  0  0  0  0  0  0  0  0  0  0  0
    4.2553   -1.7504   -0.2545 C   0  0  0  0  0  0  0  0  0  0  0  0
    3.9618   -2.6563    0.9499 C   0  0  0  0  0  0  0  0  0  0  0  0
    2.9186   -3.7326    0.6474 C   0  0  0  0  0  0  0  0  0  0  0  0
    3.6151   -4.8677   -0.0899 C   0  0  0  0  0  0  0  0  0  0  0  0
    1.6805   -3.1848   -0.0832 C   0  0  0  0  0  0  0  0  0  0  0  0
    1.9911   -2.2801   -1.2743 C   0  0  0  0  0  0  0  0  0  0  0  0
    2.4795   -3.0702   -2.3671 O   0  0  0  0  0  0  0  0  0  0  0  0
    0.4967    1.0066    0.4624 H   0  0  0  0  0  0  0  0  0  0  0  0
    0.3413   -0.7207    0.2668 H   0  0  0  0  0  0  0  0  0  0  0  0
    0.5148    0.3093   -1.1669 H   0  0  0  0  0  0  0  0  0  0  0  0
    2.7957    0.9497   -0.4811 H   0  0  0  0  0  0  0  0  0  0  0  0
    2.2160   -0.7097    1.9878 H   0  0  0  0  0  0  0  0  0  0  0  0
    2.4347    1.0250    1.8966 H   0  0  0  0  0  0  0  0  0  0  0  0
    3.8175    0.0075    1.6055 H   0  0  0  0  0  0  0  0  0  0  0  0
    3.3042   -0.7046   -1.8483 H   0  0  0  0  0  0  0  0  0  0  0  0
    4.9533   -0.9524    0.0227 H   0  0  0  0  0  0  0  0  0  0  0  0
    4.7998   -2.3370   -1.0046 H   0  0  0  0  0  0  0  0  0  0  0  0
    3.6171   -2.1027    1.8206 H   0  0  0  0  0  0  0  0  0  0  0  0
    4.8983   -3.1053    1.2991 H   0  0  0  0  0  0  0  0  0  0  0  0
    2.5607   -4.1384    1.6035 H   0  0  0  0  0  0  0  0  0  0  0  0
    4.1375   -4.5242   -0.9838 H   0  0  0  0  0  0  0  0  0  0  0  0
    2.9104   -5.6500   -0.3747 H   0  0  0  0  0  0  0  0  0  0  0  0
    4.3812   -5.3021    0.5606 H   0  0  0  0  0  0  0  0  0  0  0  0
    1.0944   -2.6156    0.6473 H   0  0  0  0  0  0  0  0  0  0  0  0
    1.0365   -4.0129   -0.4026 H   0  0  0  0  0  0  0  0  0  0  0  0
    1.0636   -1.8574   -1.6666 H   0  0  0  0  0  0  0  0  0  0  0  0
    3.4154   -3.2363   -2.2572 H   0  0  0  0  0  0  0  0  0  0  0  0
  1  2  1  0  0  0  0
  1 12  1  0  0  0  0
  1 13  1  0  0  0  0
  1 14  1  0  0  0  0
  2  3  1  0  0  0  0
  2  4  1  0  0  0  0
  2 15  1  0  0  0  0
  3 16  1  0  0  0  0
  3 17  1  0  0  0  0
  3 18  1  0  0  0  0
  4  5  1  0  0  0  0
  4 10  1  0  0  0  0
  4 19  1  0  0  0  0
  5  6  1  0  0  0  0
  5 20  1  0  0  0  0
  5 21  1  0  0  0  0
  6  7  1  0  0  0  0
  6 22  1  0  0  0  0
  6 23  1  0  0  0  0
  7  8  1  0  0  0  0
  7  9  1  0  0  0  0
  7 24  1  0  0  0  0
  8 25  1  0  0  0  0
  8 26  1  0  0  0  0
  8 27  1  0  0  0  0
  9 10  1  0  0  0  0
  9 28  1  0  0  0  0
  9 29  1  0  0  0  0
 10 11  1  0  0  0  0
 10 30  1  0  0  0  0
 11 31  1  0  0  0  0
M  END
$$$$
