
 OpenBabel07202215583D

 29 29  0  0  1  0  0  0  0  0999 V2000
    5.0985   -0.0368   -0.1367 C   0  0  0  0  0  0  0  0  0  0  0  0
    4.5048    0.7795   -1.2805 C   0  0  0  0  0  0  0  0  0  0  0  0
    5.4028    1.9969   -1.4981 C   0  0  0  0  0  0  0  0  0  0  0  0
    3.0155    1.1086   -0.9804 C   0  0  1  0  0  0  0  0  0  0  0  0
    2.7561    2.5034   -0.3926 C   0  0  0  0  0  0  0  0  0  0  0  0
    2.9038    3.6506   -1.4038 C   0  0  0  0  0  0  0  0  0  0  0  0
    2.1115    3.4034   -2.6917 C   0  0  2  0  0  0  0  0  0  0  0  0
    0.6434    3.6878   -2.3984 C   0  0  0  0  0  0  0  0  0  0  0  0
    2.2959    2.0010   -3.2853 C   0  0  0  0  0  0  0  0  0  0  0  0
    2.1776    0.9293   -2.2335 C   0  0  0  0  0  0  0  0  0  0  0  0
    1.5111   -0.0937   -2.4284 O   0  0  0  0  0  0  0  0  0  0  0  0
    6.1575   -0.2396   -0.3257 H   0  0  0  0  0  0  0  0  0  0  0  0
    4.5835   -0.9964   -0.0357 H   0  0  0  0  0  0  0  0  0  0  0  0
    5.0171    0.5057    0.8107 H   0  0  0  0  0  0  0  0  0  0  0  0
    4.5645    0.1667   -2.1900 H   0  0  0  0  0  0  0  0  0  0  0  0
    5.3418    2.6884   -0.6492 H   0  0  0  0  0  0  0  0  0  0  0  0
    5.1268    2.5027   -2.4267 H   0  0  0  0  0  0  0  0  0  0  0  0
    6.4577    1.7391   -1.5980 H   0  0  0  0  0  0  0  0  0  0  0  0
    2.6207    0.3721   -0.2633 H   0  0  0  0  0  0  0  0  0  0  0  0
    3.4062    2.6683    0.4742 H   0  0  0  0  0  0  0  0  0  0  0  0
    1.7338    2.5323    0.0060 H   0  0  0  0  0  0  0  0  0  0  0  0
    3.9369    3.8586   -1.6757 H   0  0  0  0  0  0  0  0  0  0  0  0
    2.5997    4.5882   -0.9244 H   0  0  0  0  0  0  0  0  0  0  0  0
    2.4520    4.1244   -3.4461 H   0  0  0  0  0  0  0  0  0  0  0  0
    0.2420    2.9916   -1.6556 H   0  0  0  0  0  0  0  0  0  0  0  0
    0.0423    3.6079   -3.3057 H   0  0  0  0  0  0  0  0  0  0  0  0
    0.5362    4.7023   -2.0001 H   0  0  0  0  0  0  0  0  0  0  0  0
    3.2819    1.8894   -3.7504 H   0  0  0  0  0  0  0  0  0  0  0  0
    1.5518    1.8134   -4.0681 H   0  0  0  0  0  0  0  0  0  0  0  0
  1  2  1  0  0  0  0
  1 12  1  0  0  0  0
  1 13  1  0  0  0  0
  1 14  1  0  0  0  0
  2  3  1  0  0  0  0
  2 15  1  0  0  0  0
  3 16  1  0  0  0  0
  3 17  1  0  0  0  0
  3 18  1  0  0  0  0
  4  5  1  0  0  0  0
  4 10  1  0  0  0  0
  4  2  1  0  0  0  0
  4 19  1  1  0  0  0
  5  6  1  0  0  0  0
  5 20  1  0  0  0  0
  5 21  1  0  0  0  0
  6  7  1  0  0  0  0
  6 22  1  0  0  0  0
  6 23  1  0  0  0  0
  7  8  1  0  0  0  0
  7  9  1  0  0  0  0
  7 24  1  6  0  0  0
  8 25  1  0  0  0  0
  8 26  1  0  0  0  0
  8 27  1  0  0  0  0
  9 10  1  0  0  0  0
  9 28  1  0  0  0  0
  9 29  1  0  0  0  0
 10 11  2  0  0  0  0
M  END
$$$$
