
 OpenBabel07202215583D

 34 34  0  0  0  0  0  0  0  0999 V2000
    0.9759    0.0545    0.0299 C   0  0  0  0  0  0  0  0  0  0  0  0
    2.4816    0.0034    0.0581 C   0  0  0  0  0  0  0  0  0  0  0  0
    3.0952   -0.4708    1.0135 O   0  0  0  0  0  0  0  0  0  0  0  0
    3.1894    0.5766   -1.1202 C   0  0  0  0  0  0  0  0  0  0  0  0
    4.5271    0.6956   -1.1430 C   0  0  0  0  0  0  0  0  0  0  0  0
    5.2945    1.3253   -2.2260 C   0  0  0  0  0  0  0  0  0  0  0  0
    4.9688    2.5452   -2.7258 C   0  0  0  0  0  0  0  0  0  0  0  0
    3.8700    3.4429   -2.2084 C   0  0  0  0  0  0  0  0  0  0  0  0
    5.7148    3.1906   -3.8768 C   0  0  0  0  0  0  0  0  0  0  0  0
    6.6712    2.2663   -4.6129 C   0  0  0  0  0  0  0  0  0  0  0  0
    7.4652    1.4490   -3.6100 C   0  0  0  0  0  0  0  0  0  0  0  0
    6.5483    0.5556   -2.7243 C   0  0  0  0  0  0  0  0  0  0  0  0
    7.4357    0.0621   -1.5583 C   0  0  0  0  0  0  0  0  0  0  0  0
    6.1064   -0.6694   -3.5520 C   0  0  0  0  0  0  0  0  0  0  0  0
    0.5792   -0.4285    0.9281 H   0  0  0  0  0  0  0  0  0  0  0  0
    0.6000   -0.4826   -0.8447 H   0  0  0  0  0  0  0  0  0  0  0  0
    0.6302    1.0922    0.0146 H   0  0  0  0  0  0  0  0  0  0  0  0
    2.5678    0.9562   -1.9219 H   0  0  0  0  0  0  0  0  0  0  0  0
    5.0956    0.3017   -0.3023 H   0  0  0  0  0  0  0  0  0  0  0  0
    3.3228    3.0482   -1.3528 H   0  0  0  0  0  0  0  0  0  0  0  0
    3.1425    3.6376   -3.0030 H   0  0  0  0  0  0  0  0  0  0  0  0
    4.2970    4.3934   -1.8751 H   0  0  0  0  0  0  0  0  0  0  0  0
    6.2761    4.0468   -3.4816 H   0  0  0  0  0  0  0  0  0  0  0  0
    4.9973    3.5869   -4.6058 H   0  0  0  0  0  0  0  0  0  0  0  0
    7.3485    2.8606   -5.2375 H   0  0  0  0  0  0  0  0  0  0  0  0
    6.1158    1.6117   -5.2940 H   0  0  0  0  0  0  0  0  0  0  0  0
    8.0416    2.1407   -2.9794 H   0  0  0  0  0  0  0  0  0  0  0  0
    8.2030    0.8361   -4.1436 H   0  0  0  0  0  0  0  0  0  0  0  0
    7.7658    0.9003   -0.9334 H   0  0  0  0  0  0  0  0  0  0  0  0
    8.3306   -0.4487   -1.9326 H   0  0  0  0  0  0  0  0  0  0  0  0
    6.9160   -0.6554   -0.9159 H   0  0  0  0  0  0  0  0  0  0  0  0
    5.4960   -0.3805   -4.4141 H   0  0  0  0  0  0  0  0  0  0  0  0
    5.5175   -1.3704   -2.9513 H   0  0  0  0  0  0  0  0  0  0  0  0
    6.9761   -1.2177   -3.9342 H   0  0  0  0  0  0  0  0  0  0  0  0
  1  2  1  0  0  0  0
  1 15  1  0  0  0  0
  1 16  1  0  0  0  0
  1 17  1  0  0  0  0
  2  3  2  0  0  0  0
  2  4  1  0  0  0  0
  4  5  2  0  0  0  0
  4 18  1  0  0  0  0
  5  6  1  0  0  0  0
  5 19  1  0  0  0  0
  6  7  2  0  0  0  0
  6 12  1  0  0  0  0
  7  8  1  0  0  0  0
  7  9  1  0  0  0  0
  8 20  1  0  0  0  0
  8 21  1  0  0  0  0
  8 22  1  0  0  0  0
  9 10  1  0  0  0  0
  9 23  1  0  0  0  0
  9 24  1  0  0  0  0
 10 11  1  0  0  0  0
 10 25  1  0  0  0  0
 10 26  1  0  0  0  0
 11 12  1  0  0  0  0
 11 27  1  0  0  0  0
 11 28  1  0  0  0  0
 12 13  1  0  0  0  0
 12 14  1  0  0  0  0
 13 29  1  0  0  0  0
 13 30  1  0  0  0  0
 13 31  1  0  0  0  0
 14 32  1  0  0  0  0
 14 33  1  0  0  0  0
 14 34  1  0  0  0  0
M  END
$$$$
