
 OpenBabel07202215583D

 21 21  0  0  0  0  0  0  0  0999 V2000
    1.0064    0.0831   -0.0419 C   0  0  0  0  0  0  0  0  0  0  0  0
    2.5150    0.0642   -0.0168 C   0  0  0  0  0  0  0  0  0  0  0  0
    3.1608    0.3309    0.9948 O   0  0  0  0  0  0  0  0  0  0  0  0
    3.2328   -0.3066   -1.2596 C   0  0  0  0  0  0  0  0  0  0  0  0
    2.7917    0.1880   -2.4824 C   0  0  0  0  0  0  0  0  0  0  0  0
    3.4806   -0.0933   -3.6676 C   0  0  0  0  0  0  0  0  0  0  0  0
    4.6431   -0.8824   -3.6405 C   0  0  0  0  0  0  0  0  0  0  0  0
    5.0706   -1.3904   -2.3952 C   0  0  0  0  0  0  0  0  0  0  0  0
    4.3760   -1.1031   -1.2108 C   0  0  0  0  0  0  0  0  0  0  0  0
    5.4689   -1.2481   -4.6730 O   0  0  0  0  0  0  0  0  0  0  0  0
    5.1709   -0.7742   -5.9792 C   0  0  0  0  0  0  0  0  0  0  0  0
    2.7441    0.6250   -5.0609 Cl  0  0  0  0  0  0  0  0  0  0  0  0
    0.6332    0.3963    0.9376 H   0  0  0  0  0  0  0  0  0  0  0  0
    0.6292   -0.9220   -0.2498 H   0  0  0  0  0  0  0  0  0  0  0  0
    0.6235    0.7919   -0.7797 H   0  0  0  0  0  0  0  0  0  0  0  0
    1.9209    0.8342   -2.5319 H   0  0  0  0  0  0  0  0  0  0  0  0
    5.9655   -2.0117   -2.3397 H   0  0  0  0  0  0  0  0  0  0  0  0
    4.7297   -1.4971   -0.2590 H   0  0  0  0  0  0  0  0  0  0  0  0
    5.9319   -1.1340   -6.6770 H   0  0  0  0  0  0  0  0  0  0  0  0
    5.2066    0.3197   -6.0155 H   0  0  0  0  0  0  0  0  0  0  0  0
    4.2148   -1.1801   -6.3244 H   0  0  0  0  0  0  0  0  0  0  0  0
  1  2  1  0  0  0  0
  1 13  1  0  0  0  0
  1 14  1  0  0  0  0
  1 15  1  0  0  0  0
  2  3  2  0  0  0  0
  2  4  1  0  0  0  0
  4  5  2  0  0  0  0
  4  9  1  0  0  0  0
  5  6  1  0  0  0  0
  5 16  1  0  0  0  0
  6  7  2  0  0  0  0
  6 12  1  0  0  0  0
  7  8  1  0  0  0  0
  7 10  1  0  0  0  0
  8  9  2  0  0  0  0
  8 17  1  0  0  0  0
  9 18  1  0  0  0  0
 10 11  1  0  0  0  0
 11 19  1  0  0  0  0
 11 20  1  0  0  0  0
 11 21  1  0  0  0  0
M  END
$$$$
