
 OpenBabel07122215493D

 17 17  0  0  0  0  0  0  0  0999 V2000
    1.1565   -0.0423   -0.0378 C   0  0  0  0  0  0  0  0  0  0  0  0
    2.9744   -0.0211   -0.0782 S   0  0  0  0  0  0  0  0  0  0  0  0
    3.4622   -0.9561    1.6912 S   0  0  0  0  0  0  0  0  0  0  0  0
    5.2968   -0.9768    1.6727 C   0  0  0  0  0  0  0  0  0  0  0  0
    5.8154   -1.5135    2.9628 C   0  0  0  0  0  0  0  0  0  0  0  0
    5.7015   -2.8584    3.1831 O   0  0  0  0  0  0  0  0  0  0  0  0
    6.1685   -3.0972    4.4371 C   0  0  0  0  0  0  0  0  0  0  0  0
    6.6109   -1.9290    5.0172 C   0  0  0  0  0  0  0  0  0  0  0  0
    6.4068   -0.9124    4.0548 C   0  0  0  0  0  0  0  0  0  0  0  0
    0.7736    0.4317   -0.9473 H   0  0  0  0  0  0  0  0  0  0  0  0
    0.7767    0.5206    0.8198 H   0  0  0  0  0  0  0  0  0  0  0  0
    0.7765   -1.0674   -0.0069 H   0  0  0  0  0  0  0  0  0  0  0  0
    5.6595    0.0501    1.5493 H   0  0  0  0  0  0  0  0  0  0  0  0
    5.6647   -1.5758    0.8331 H   0  0  0  0  0  0  0  0  0  0  0  0
    6.1129   -4.1220    4.7740 H   0  0  0  0  0  0  0  0  0  0  0  0
    7.0188   -1.8252    6.0115 H   0  0  0  0  0  0  0  0  0  0  0  0
    6.6312    0.1410    4.1533 H   0  0  0  0  0  0  0  0  0  0  0  0
  1  2  1  0  0  0  0
  1 10  1  0  0  0  0
  1 11  1  0  0  0  0
  1 12  1  0  0  0  0
  2  3  1  0  0  0  0
  3  4  1  0  0  0  0
  4  5  1  0  0  0  0
  4 13  1  0  0  0  0
  4 14  1  0  0  0  0
  5  6  1  0  0  0  0
  5  9  2  0  0  0  0
  6  7  1  0  0  0  0
  7  8  2  0  0  0  0
  7 15  1  0  0  0  0
  8  9  1  0  0  0  0
  8 16  1  0  0  0  0
  9 17  1  0  0  0  0
M  END
$$$$
