
 OpenBabel07202215583D

 21 21  0  0  0  0  0  0  0  0999 V2000
    0.9274   -0.0289   -0.0485 C   0  0  0  0  0  0  0  0  0  0  0  0
    2.4488   -0.0007   -0.0815 C   0  0  0  0  0  0  0  0  0  0  0  0
    2.9563    1.1836   -0.8841 C   0  0  0  0  0  0  0  0  0  0  0  0
    2.2112    2.0180   -1.3957 O   0  0  0  0  0  0  0  0  0  0  0  0
    4.4229    1.3729   -1.0114 C   0  0  0  0  0  0  0  0  0  0  0  0
    5.2815    0.3076   -1.3062 C   0  0  0  0  0  0  0  0  0  0  0  0
    6.6531    0.5416   -1.4697 C   0  0  0  0  0  0  0  0  0  0  0  0
    7.1514    1.8349   -1.3280 C   0  0  0  0  0  0  0  0  0  0  0  0
    6.3048    2.8945   -1.0229 C   0  0  0  0  0  0  0  0  0  0  0  0
    4.9366    2.6677   -0.8736 C   0  0  0  0  0  0  0  0  0  0  0  0
    8.4746    2.1219   -1.4869 O   0  0  0  0  0  0  0  0  0  0  0  0
    0.5663   -0.8781    0.5389 H   0  0  0  0  0  0  0  0  0  0  0  0
    0.5193   -0.1140   -1.0615 H   0  0  0  0  0  0  0  0  0  0  0  0
    0.5272    0.8892    0.3954 H   0  0  0  0  0  0  0  0  0  0  0  0
    2.8094   -0.9348   -0.5211 H   0  0  0  0  0  0  0  0  0  0  0  0
    2.8299    0.0833    0.9424 H   0  0  0  0  0  0  0  0  0  0  0  0
    4.8966   -0.6984   -1.4463 H   0  0  0  0  0  0  0  0  0  0  0  0
    7.3085   -0.2891   -1.7145 H   0  0  0  0  0  0  0  0  0  0  0  0
    6.7086    3.8970   -0.9120 H   0  0  0  0  0  0  0  0  0  0  0  0
    4.2737    3.5014   -0.6517 H   0  0  0  0  0  0  0  0  0  0  0  0
    8.9544    1.3162   -1.7375 H   0  0  0  0  0  0  0  0  0  0  0  0
  1  2  1  0  0  0  0
  1 12  1  0  0  0  0
  1 13  1  0  0  0  0
  1 14  1  0  0  0  0
  2  3  1  0  0  0  0
  2 15  1  0  0  0  0
  2 16  1  0  0  0  0
  3  4  2  0  0  0  0
  3  5  1  0  0  0  0
  5  6  2  0  0  0  0
  5 10  1  0  0  0  0
  6  7  1  0  0  0  0
  6 17  1  0  0  0  0
  7  8  2  0  0  0  0
  7 18  1  0  0  0  0
  8  9  1  0  0  0  0
  8 11  1  0  0  0  0
  9 10  2  0  0  0  0
  9 19  1  0  0  0  0
 10 20  1  0  0  0  0
 11 21  1  0  0  0  0
M  END
$$$$
