
 OpenBabel07122215493D

 37 36  0  0  0  0  0  0  0  0999 V2000
    0.9698    0.0872    0.0769 C   0  0  0  0  0  0  0  0  0  0  0  0
    2.4859    0.0814    0.0723 C   0  0  0  0  0  0  0  0  0  0  0  0
    3.0094   -1.0396   -0.8142 C   0  0  0  0  0  0  0  0  0  0  0  0
    4.5295   -1.0479   -0.8207 C   0  0  0  0  0  0  0  0  0  0  0  0
    5.0432   -2.1699   -1.7079 C   0  0  0  0  0  0  0  0  0  0  0  0
    6.5622   -2.1766   -1.7131 C   0  0  0  0  0  0  0  0  0  0  0  0
    7.0763   -3.2978   -2.5997 C   0  0  0  0  0  0  0  0  0  0  0  0
    8.5962   -3.3041   -2.6047 C   0  0  0  0  0  0  0  0  0  0  0  0
    9.1131   -4.4256   -3.4915 C   0  0  0  0  0  0  0  0  0  0  0  0
   10.6351   -4.4386   -3.5018 C   0  0  0  0  0  0  0  0  0  0  0  0
   11.1482   -5.5617   -4.3898 C   0  0  0  0  0  0  0  0  0  0  0  0
   12.6507   -5.5873   -4.4100 C   0  0  0  0  0  0  0  0  0  0  0  0
   13.2900   -6.4105   -5.0609 O   0  0  0  0  0  0  0  0  0  0  0  0
    0.5959    0.8929    0.7139 H   0  0  0  0  0  0  0  0  0  0  0  0
    0.5808   -0.8630    0.4564 H   0  0  0  0  0  0  0  0  0  0  0  0
    0.5808    0.2374   -0.9353 H   0  0  0  0  0  0  0  0  0  0  0  0
    2.8569   -0.0479    1.0957 H   0  0  0  0  0  0  0  0  0  0  0  0
    2.8569    1.0474   -0.2896 H   0  0  0  0  0  0  0  0  0  0  0  0
    2.6366   -0.9114   -1.8380 H   0  0  0  0  0  0  0  0  0  0  0  0
    2.6366   -2.0063   -0.4533 H   0  0  0  0  0  0  0  0  0  0  0  0
    4.9071   -1.1800    0.2007 H   0  0  0  0  0  0  0  0  0  0  0  0
    4.9071   -0.0845   -1.1848 H   0  0  0  0  0  0  0  0  0  0  0  0
    4.6680   -2.0396   -2.7304 H   0  0  0  0  0  0  0  0  0  0  0  0
    4.6680   -3.1349   -1.3452 H   0  0  0  0  0  0  0  0  0  0  0  0
    6.9378   -2.3074   -0.6908 H   0  0  0  0  0  0  0  0  0  0  0  0
    6.9378   -1.2120   -2.0762 H   0  0  0  0  0  0  0  0  0  0  0  0
    6.6996   -3.1666   -3.6216 H   0  0  0  0  0  0  0  0  0  0  0  0
    6.6996   -4.2619   -2.2364 H   0  0  0  0  0  0  0  0  0  0  0  0
    8.9698   -3.4340   -1.5816 H   0  0  0  0  0  0  0  0  0  0  0  0
    8.9698   -2.3385   -2.9670 H   0  0  0  0  0  0  0  0  0  0  0  0
    8.7340   -4.2934   -4.5124 H   0  0  0  0  0  0  0  0  0  0  0  0
    8.7340   -5.3885   -3.1274 H   0  0  0  0  0  0  0  0  0  0  0  0
   11.0132   -4.5645   -2.4793 H   0  0  0  0  0  0  0  0  0  0  0  0
   11.0132   -3.4727   -3.8600 H   0  0  0  0  0  0  0  0  0  0  0  0
   10.7930   -5.4212   -5.4160 H   0  0  0  0  0  0  0  0  0  0  0  0
   10.7930   -6.5278   -4.0164 H   0  0  0  0  0  0  0  0  0  0  0  0
   13.1693   -4.8238   -3.8063 H   0  0  0  0  0  0  0  0  0  0  0  0
  1  2  1  0  0  0  0
  1 14  1  0  0  0  0
  1 15  1  0  0  0  0
  1 16  1  0  0  0  0
  2  3  1  0  0  0  0
  2 17  1  0  0  0  0
  2 18  1  0  0  0  0
  3  4  1  0  0  0  0
  3 19  1  0  0  0  0
  3 20  1  0  0  0  0
  4  5  1  0  0  0  0
  4 21  1  0  0  0  0
  4 22  1  0  0  0  0
  5  6  1  0  0  0  0
  5 23  1  0  0  0  0
  5 24  1  0  0  0  0
  6  7  1  0  0  0  0
  6 25  1  0  0  0  0
  6 26  1  0  0  0  0
  7  8  1  0  0  0  0
  7 27  1  0  0  0  0
  7 28  1  0  0  0  0
  8  9  1  0  0  0  0
  8 29  1  0  0  0  0
  8 30  1  0  0  0  0
  9 10  1  0  0  0  0
  9 31  1  0  0  0  0
  9 32  1  0  0  0  0
 10 11  1  0  0  0  0
 10 33  1  0  0  0  0
 10 34  1  0  0  0  0
 11 12  1  0  0  0  0
 11 35  1  0  0  0  0
 11 36  1  0  0  0  0
 12 13  2  0  0  0  0
 12 37  1  0  0  0  0
M  END
$$$$
