
 OpenBabel07202215583D

 26 27  0  0  0  0  0  0  0  0999 V2000
    1.2382    0.2120   -0.3235 C   0  0  0  0  0  0  0  0  0  0  0  0
    2.6172   -0.0089   -0.0373 O   0  0  0  0  0  0  0  0  0  0  0  0
    3.0875    0.2340    1.2329 C   0  0  0  0  0  0  0  0  0  0  0  0
    4.1960    1.1160    1.2389 C   0  0  0  0  0  0  0  0  0  0  0  0
    4.9440    1.3956    2.4095 C   0  0  0  0  0  0  0  0  0  0  0  0
    6.0627    2.2578    2.4127 C   0  0  0  0  0  0  0  0  0  0  0  0
    6.7851    2.4952    3.5889 C   0  0  0  0  0  0  0  0  0  0  0  0
    6.4067    1.8784    4.7743 C   0  0  0  0  0  0  0  0  0  0  0  0
    5.3037    1.0237    4.7878 C   0  0  0  0  0  0  0  0  0  0  0  0
    4.5691    0.7821    3.6096 C   0  0  0  0  0  0  0  0  0  0  0  0
    3.4713   -0.0913    3.6074 C   0  0  0  0  0  0  0  0  0  0  0  0
    2.7478   -0.4047    2.4356 C   0  0  0  0  0  0  0  0  0  0  0  0
    1.8530   -1.4017    2.7281 O   0  0  0  0  0  0  0  0  0  0  0  0
    0.9730   -1.8246    1.7219 C   0  0  0  0  0  0  0  0  0  0  0  0
    1.1176    0.5064   -1.3701 H   0  0  0  0  0  0  0  0  0  0  0  0
    0.7641    0.9543    0.3255 H   0  0  0  0  0  0  0  0  0  0  0  0
    0.6986   -0.7341   -0.3103 H   0  0  0  0  0  0  0  0  0  0  0  0
    4.5032    1.5727    0.3007 H   0  0  0  0  0  0  0  0  0  0  0  0
    6.3814    2.7484    1.4981 H   0  0  0  0  0  0  0  0  0  0  0  0
    7.6455    3.1609    3.5751 H   0  0  0  0  0  0  0  0  0  0  0  0
    6.9670    2.0558    5.6896 H   0  0  0  0  0  0  0  0  0  0  0  0
    5.0268    0.5384    5.7195 H   0  0  0  0  0  0  0  0  0  0  0  0
    3.1810   -0.5814    4.5347 H   0  0  0  0  0  0  0  0  0  0  0  0
    0.3790   -2.6810    2.0474 H   0  0  0  0  0  0  0  0  0  0  0  0
    1.5352   -2.1541    0.8433 H   0  0  0  0  0  0  0  0  0  0  0  0
    0.2502   -1.0225    1.5571 H   0  0  0  0  0  0  0  0  0  0  0  0
  1  2  1  0  0  0  0
  1 15  1  0  0  0  0
  1 16  1  0  0  0  0
  1 17  1  0  0  0  0
  2  3  1  0  0  0  0
  3  4  2  0  0  0  0
  3 12  1  0  0  0  0
  4  5  1  0  0  0  0
  4 18  1  0  0  0  0
  5  6  2  0  0  0  0
  5 10  1  0  0  0  0
  6  7  1  0  0  0  0
  6 19  1  0  0  0  0
  7  8  2  0  0  0  0
  7 20  1  0  0  0  0
  8  9  1  0  0  0  0
  8 21  1  0  0  0  0
  9 10  2  0  0  0  0
  9 22  1  0  0  0  0
 10 11  1  0  0  0  0
 11 12  2  0  0  0  0
 11 23  1  0  0  0  0
 12 13  1  0  0  0  0
 13 14  1  0  0  0  0
 14 24  1  0  0  0  0
 14 25  1  0  0  0  0
 14 26  1  0  0  0  0
M  END
$$$$
