
 OpenBabel07222214443D

 29 29  0  0  0  0  0  0  0  0999 V2000
    0.9866   -0.0178   -0.0069 C   0  0  0  0  0  0  0  0  0  0  0  0
    2.5232    0.0124   -0.1025 C   0  0  0  0  0  0  0  0  0  0  0  0
    2.8728   -0.1310   -1.6022 C   0  0  0  0  0  0  0  0  0  0  0  0
    3.0150    1.4256    0.2836 C   0  0  0  0  0  0  0  0  0  0  0  0
    3.1466   -1.0310    0.9153 C   0  0  0  0  0  0  0  0  0  0  0  0
    4.6845   -1.0861    0.8954 C   0  0  0  0  0  0  0  0  0  0  0  0
    5.2390   -1.6629   -0.3940 C   0  0  0  0  0  0  0  0  0  0  0  0
    4.4832   -2.8936   -0.8958 C   0  0  0  0  0  0  0  0  0  0  0  0
    5.0276   -3.6500   -1.6912 O   0  0  0  0  0  0  0  0  0  0  0  0
    3.0167   -3.1194   -0.5153 C   0  0  0  0  0  0  0  0  0  0  0  0
    2.6422   -2.4834    0.8051 C   0  0  0  0  0  0  0  0  0  0  0  0
    0.5447    0.6938   -0.7131 H   0  0  0  0  0  0  0  0  0  0  0  0
    0.6383    0.2467    0.9962 H   0  0  0  0  0  0  0  0  0  0  0  0
    0.5849   -1.0034   -0.2634 H   0  0  0  0  0  0  0  0  0  0  0  0
    2.2845    0.5572   -2.2157 H   0  0  0  0  0  0  0  0  0  0  0  0
    2.6841   -1.1095   -2.0292 H   0  0  0  0  0  0  0  0  0  0  0  0
    3.9037    0.1445   -1.8119 H   0  0  0  0  0  0  0  0  0  0  0  0
    2.6273    2.1736   -0.4153 H   0  0  0  0  0  0  0  0  0  0  0  0
    4.1065    1.5002    0.2316 H   0  0  0  0  0  0  0  0  0  0  0  0
    2.7052    1.7022    1.2952 H   0  0  0  0  0  0  0  0  0  0  0  0
    2.8593   -0.7013    1.9279 H   0  0  0  0  0  0  0  0  0  0  0  0
    5.0368   -1.7129    1.7257 H   0  0  0  0  0  0  0  0  0  0  0  0
    5.1165   -0.0996    1.0929 H   0  0  0  0  0  0  0  0  0  0  0  0
    6.2897   -1.9293   -0.2458 H   0  0  0  0  0  0  0  0  0  0  0  0
    5.2831   -0.9092   -1.1790 H   0  0  0  0  0  0  0  0  0  0  0  0
    2.8388   -4.1983   -0.4752 H   0  0  0  0  0  0  0  0  0  0  0  0
    2.3348   -2.7696   -1.2916 H   0  0  0  0  0  0  0  0  0  0  0  0
    3.0809   -3.0892    1.6116 H   0  0  0  0  0  0  0  0  0  0  0  0
    1.5596   -2.5418    0.9675 H   0  0  0  0  0  0  0  0  0  0  0  0
  1  2  1  0  0  0  0
  1 12  1  0  0  0  0
  1 13  1  0  0  0  0
  1 14  1  0  0  0  0
  2  3  1  0  0  0  0
  2  4  1  0  0  0  0
  2  5  1  0  0  0  0
  3 15  1  0  0  0  0
  3 16  1  0  0  0  0
  3 17  1  0  0  0  0
  4 18  1  0  0  0  0
  4 19  1  0  0  0  0
  4 20  1  0  0  0  0
  5  6  1  0  0  0  0
  5 11  1  0  0  0  0
  5 21  1  0  0  0  0
  6  7  1  0  0  0  0
  6 22  1  0  0  0  0
  6 23  1  0  0  0  0
  7  8  1  0  0  0  0
  7 24  1  0  0  0  0
  7 25  1  0  0  0  0
  8  9  2  0  0  0  0
  8 10  1  0  0  0  0
 10 11  1  0  0  0  0
 10 26  1  0  0  0  0
 10 27  1  0  0  0  0
 11 28  1  0  0  0  0
 11 29  1  0  0  0  0
M  END
$$$$
