
 OpenBabel07222214433D

 16 16  0  0  0  0  0  0  0  0999 V2000
    0.9860   -0.0962   -0.0492 O   0  0  0  0  0  0  0  0  0  0  0  0
    2.4076   -0.0999   -0.0471 C   0  0  0  0  0  0  0  0  0  0  0  0
    2.8526   -0.6069    1.2941 C   0  0  0  0  0  0  0  0  0  0  0  0
    2.8290   -1.9824    1.5713 C   0  0  0  0  0  0  0  0  0  0  0  0
    3.0571   -2.4424    2.8693 C   0  0  0  0  0  0  0  0  0  0  0  0
    3.3589   -1.5422    3.8868 C   0  0  0  0  0  0  0  0  0  0  0  0
    3.4356   -0.1767    3.6112 C   0  0  0  0  0  0  0  0  0  0  0  0
    3.1761    0.2879    2.3207 C   0  0  0  0  0  0  0  0  0  0  0  0
    0.6995    0.2587   -0.9047 H   0  0  0  0  0  0  0  0  0  0  0  0
    2.7663    0.9191   -0.2270 H   0  0  0  0  0  0  0  0  0  0  0  0
    2.7688   -0.7430   -0.8559 H   0  0  0  0  0  0  0  0  0  0  0  0
    2.5889   -2.6934    0.7859 H   0  0  0  0  0  0  0  0  0  0  0  0
    2.9668   -3.5036    3.0894 H   0  0  0  0  0  0  0  0  0  0  0  0
    3.5208   -1.9000    4.9001 H   0  0  0  0  0  0  0  0  0  0  0  0
    3.6621    0.5270    4.4057 H   0  0  0  0  0  0  0  0  0  0  0  0
    3.1927    1.3590    2.1294 H   0  0  0  0  0  0  0  0  0  0  0  0
  1  2  1  0  0  0  0
  1  9  1  0  0  0  0
  2  3  1  0  0  0  0
  2 10  1  0  0  0  0
  2 11  1  0  0  0  0
  3  4  1  0  0  0  0
  3  8  2  0  0  0  0
  4  5  2  0  0  0  0
  4 12  1  0  0  0  0
  5  6  1  0  0  0  0
  5 13  1  0  0  0  0
  6  7  2  0  0  0  0
  6 14  1  0  0  0  0
  7  8  1  0  0  0  0
  7 15  1  0  0  0  0
  8 16  1  0  0  0  0
M  END
$$$$
