
 OpenBabel07122215493D

 17 17  0  0  0  0  0  0  0  0999 V2000
    0.9657    0.0530    0.0321 C   0  0  0  0  0  0  0  0  0  0  0  0
    2.4844   -0.0537    0.0510 C   0  0  0  0  0  0  0  0  0  0  0  0
    3.0073   -1.2747   -0.6153 C   0  0  0  0  0  0  0  0  0  0  0  0
    4.0008   -0.9479   -1.4405 C   0  0  0  0  0  0  0  0  0  0  0  0
    4.1671    0.5178   -1.3676 C   0  0  0  0  0  0  0  0  0  0  0  0
    5.0765    1.1711   -1.8515 O   0  0  0  0  0  0  0  0  0  0  0  0
    3.1119    1.0216   -0.6567 O   0  0  0  0  0  0  0  0  0  0  0  0
    4.7470   -1.7795   -2.2247 O   0  0  0  0  0  0  0  0  0  0  0  0
    2.4680   -2.6351   -0.3719 C   0  0  0  0  0  0  0  0  0  0  0  0
    0.5219   -0.7439    0.6402 H   0  0  0  0  0  0  0  0  0  0  0  0
    0.5608   -0.0278   -0.9819 H   0  0  0  0  0  0  0  0  0  0  0  0
    0.6271    1.0072    0.4471 H   0  0  0  0  0  0  0  0  0  0  0  0
    2.8297    0.0100    1.0888 H   0  0  0  0  0  0  0  0  0  0  0  0
    4.4195   -2.6867   -2.1115 H   0  0  0  0  0  0  0  0  0  0  0  0
    1.6560   -2.6319    0.3594 H   0  0  0  0  0  0  0  0  0  0  0  0
    3.2520   -3.2941    0.0103 H   0  0  0  0  0  0  0  0  0  0  0  0
    2.0723   -3.0509   -1.3043 H   0  0  0  0  0  0  0  0  0  0  0  0
  1  2  1  0  0  0  0
  1 10  1  0  0  0  0
  1 11  1  0  0  0  0
  1 12  1  0  0  0  0
  2  3  1  0  0  0  0
  2  7  1  0  0  0  0
  2 13  1  0  0  0  0
  3  4  2  0  0  0  0
  3  9  1  0  0  0  0
  4  5  1  0  0  0  0
  4  8  1  0  0  0  0
  5  6  2  0  0  0  0
  5  7  1  0  0  0  0
  8 14  1  0  0  0  0
  9 15  1  0  0  0  0
  9 16  1  0  0  0  0
  9 17  1  0  0  0  0
M  END
$$$$
