
 OpenBabel07202215583D

 29 29  0  0  1  0  0  0  0  0999 V2000
    2.9315    0.3661    1.4350 C   0  0  0  0  0  0  0  0  0  0  0  0
    2.4566    0.0074    0.0307 C   0  0  1  0  0  0  0  0  0  0  0  0
    2.9476    1.0468   -0.9855 C   0  0  0  0  0  0  0  0  0  0  0  0
    2.5035    0.6852   -2.3988 C   0  0  0  0  0  0  0  0  0  0  0  0
    2.9578   -0.7312   -2.8016 C   0  0  1  0  0  0  0  0  0  0  0  0
    2.4654   -1.7539   -1.7719 C   0  0  0  0  0  0  0  0  0  0  0  0
    2.9311   -1.3984   -0.3654 C   0  0  2  0  0  0  0  0  0  0  0  0
    2.4214   -2.3717    0.5418 O   0  0  0  0  0  0  0  0  0  0  0  0
    2.4921   -1.1584   -4.1837 C   0  0  0  0  0  0  0  0  0  0  0  0
    1.3332   -0.7523   -4.7351 C   0  0  0  0  0  0  0  0  0  0  0  0
    3.3989   -2.1115   -4.9140 C   0  0  0  0  0  0  0  0  0  0  0  0
    2.5653    1.3555    1.7257 H   0  0  0  0  0  0  0  0  0  0  0  0
    4.0251    0.3750    1.4843 H   0  0  0  0  0  0  0  0  0  0  0  0
    2.5626   -0.3566    2.1694 H   0  0  0  0  0  0  0  0  0  0  0  0
    1.3573    0.0161    0.0451 H   0  0  0  0  0  0  0  0  0  0  0  0
    4.0416    1.1204   -0.9547 H   0  0  0  0  0  0  0  0  0  0  0  0
    2.5520    2.0374   -0.7305 H   0  0  0  0  0  0  0  0  0  0  0  0
    2.8956    1.4220   -3.1105 H   0  0  0  0  0  0  0  0  0  0  0  0
    1.4104    0.7628   -2.4252 H   0  0  0  0  0  0  0  0  0  0  0  0
    4.0584   -0.7280   -2.7951 H   0  0  0  0  0  0  0  0  0  0  0  0
    2.8015   -2.7682   -2.0202 H   0  0  0  0  0  0  0  0  0  0  0  0
    1.3669   -1.7973   -1.7861 H   0  0  0  0  0  0  0  0  0  0  0  0
    4.0257   -1.4507   -0.3165 H   0  0  0  0  0  0  0  0  0  0  0  0
    1.4517   -2.3669    0.4675 H   0  0  0  0  0  0  0  0  0  0  0  0
    1.0203   -1.0927   -5.7150 H   0  0  0  0  0  0  0  0  0  0  0  0
    0.6481   -0.0892   -4.2198 H   0  0  0  0  0  0  0  0  0  0  0  0
    2.9915   -2.3933   -5.8902 H   0  0  0  0  0  0  0  0  0  0  0  0
    3.5395   -3.0308   -4.3362 H   0  0  0  0  0  0  0  0  0  0  0  0
    4.3785   -1.6518   -5.0799 H   0  0  0  0  0  0  0  0  0  0  0  0
  1 12  1  0  0  0  0
  1 13  1  0  0  0  0
  1 14  1  0  0  0  0
  2  3  1  0  0  0  0
  2  7  1  0  0  0  0
  2  1  1  0  0  0  0
  2 15  1  6  0  0  0
  3  4  1  0  0  0  0
  3 16  1  0  0  0  0
  3 17  1  0  0  0  0
  4  5  1  0  0  0  0
  4 18  1  0  0  0  0
  4 19  1  0  0  0  0
  5  6  1  0  0  0  0
  5  9  1  0  0  0  0
  5 20  1  1  0  0  0
  6  7  1  0  0  0  0
  6 21  1  0  0  0  0
  6 22  1  0  0  0  0
  7  8  1  0  0  0  0
  7 23  1  1  0  0  0
  8 24  1  0  0  0  0
  9 10  2  0  0  0  0
  9 11  1  0  0  0  0
 10 25  1  0  0  0  0
 10 26  1  0  0  0  0
 11 27  1  0  0  0  0
 11 28  1  0  0  0  0
 11 29  1  0  0  0  0
M  END
$$$$
