
 OpenBabel07122215493D

 20 19  0  0  0  0  0  0  0  0999 V2000
    1.0978   -0.0613    0.0784 C   0  0  0  0  0  0  0  0  0  0  0  0
    2.6167   -0.0562    0.0972 C   0  0  0  0  0  0  0  0  0  0  0  0
    3.0911    0.2246    1.4276 O   0  0  0  0  0  0  0  0  0  0  0  0
    4.4539    0.2350    1.5319 C   0  0  0  0  0  0  0  0  0  0  0  0
    5.2131    0.0556    0.5851 O   0  0  0  0  0  0  0  0  0  0  0  0
    4.9188    0.5339    2.9549 C   0  0  0  0  0  0  0  0  0  0  0  0
    4.4143   -0.5116    3.9442 C   0  0  0  0  0  0  0  0  0  0  0  0
    6.4500    0.5701    3.0059 C   0  0  0  0  0  0  0  0  0  0  0  0
    0.7227   -0.2750   -0.9284 H   0  0  0  0  0  0  0  0  0  0  0  0
    0.7001    0.9069    0.3984 H   0  0  0  0  0  0  0  0  0  0  0  0
    0.7015   -0.8171    0.7638 H   0  0  0  0  0  0  0  0  0  0  0  0
    2.9820    0.7115   -0.5950 H   0  0  0  0  0  0  0  0  0  0  0  0
    2.9825   -1.0388   -0.2233 H   0  0  0  0  0  0  0  0  0  0  0  0
    4.5432    1.5254    3.2369 H   0  0  0  0  0  0  0  0  0  0  0  0
    4.7608   -1.5129    3.6660 H   0  0  0  0  0  0  0  0  0  0  0  0
    3.3212   -0.5338    3.9809 H   0  0  0  0  0  0  0  0  0  0  0  0
    4.7786   -0.2989    4.9563 H   0  0  0  0  0  0  0  0  0  0  0  0
    6.8743   -0.3937    2.7002 H   0  0  0  0  0  0  0  0  0  0  0  0
    6.8118    0.7907    4.0159 H   0  0  0  0  0  0  0  0  0  0  0  0
    6.8479    1.3348    2.3304 H   0  0  0  0  0  0  0  0  0  0  0  0
  1  2  1  0  0  0  0
  1  9  1  0  0  0  0
  1 10  1  0  0  0  0
  1 11  1  0  0  0  0
  2  3  1  0  0  0  0
  2 12  1  0  0  0  0
  2 13  1  0  0  0  0
  3  4  1  0  0  0  0
  4  5  2  0  0  0  0
  4  6  1  0  0  0  0
  6  7  1  0  0  0  0
  6  8  1  0  0  0  0
  6 14  1  0  0  0  0
  7 15  1  0  0  0  0
  7 16  1  0  0  0  0
  7 17  1  0  0  0  0
  8 18  1  0  0  0  0
  8 19  1  0  0  0  0
  8 20  1  0  0  0  0
M  END
$$$$
