
 OpenBabel07202215583D

 31 30  0  0  0  0  0  0  0  0999 V2000
    0.9269    0.0160   -0.0873 O   0  0  0  0  0  0  0  0  0  0  0  0
    2.3452    0.0259   -0.0661 C   0  0  0  0  0  0  0  0  0  0  0  0
    2.8597   -0.5798   -1.3592 C   0  0  0  0  0  0  0  0  0  0  0  0
    4.3808   -0.5889   -1.3787 C   0  0  0  0  0  0  0  0  0  0  0  0
    4.8978   -1.1959   -2.6744 C   0  0  0  0  0  0  0  0  0  0  0  0
    6.4192   -1.2002   -2.6836 C   0  0  0  0  0  0  0  0  0  0  0  0
    6.9387   -1.8066   -3.9782 C   0  0  0  0  0  0  0  0  0  0  0  0
    8.4614   -1.8103   -3.9861 C   0  0  0  0  0  0  0  0  0  0  0  0
    8.9850   -2.4176   -5.2826 C   0  0  0  0  0  0  0  0  0  0  0  0
   10.4824   -2.4313   -5.3120 C   0  0  0  0  0  0  0  0  0  0  0  0
   11.1716   -2.9184   -6.3518 C   0  0  0  0  0  0  0  0  0  0  0  0
    0.6303    0.4086    0.7510 H   0  0  0  0  0  0  0  0  0  0  0  0
    2.6890   -0.5543    0.7963 H   0  0  0  0  0  0  0  0  0  0  0  0
    2.6890    1.0598    0.0402 H   0  0  0  0  0  0  0  0  0  0  0  0
    2.4706   -0.0133   -2.2145 H   0  0  0  0  0  0  0  0  0  0  0  0
    2.4706   -1.5996   -1.4715 H   0  0  0  0  0  0  0  0  0  0  0  0
    4.7604   -1.1636   -0.5249 H   0  0  0  0  0  0  0  0  0  0  0  0
    4.7604    0.4349   -1.2736 H   0  0  0  0  0  0  0  0  0  0  0  0
    4.5232   -0.6218   -3.5307 H   0  0  0  0  0  0  0  0  0  0  0  0
    4.5232   -2.2212   -2.7816 H   0  0  0  0  0  0  0  0  0  0  0  0
    6.7949   -1.7740   -1.8274 H   0  0  0  0  0  0  0  0  0  0  0  0
    6.7949   -0.1751   -2.5764 H   0  0  0  0  0  0  0  0  0  0  0  0
    6.5625   -1.2324   -4.8338 H   0  0  0  0  0  0  0  0  0  0  0  0
    6.5625   -2.8315   -4.0848 H   0  0  0  0  0  0  0  0  0  0  0  0
    8.8323   -2.3821   -3.1259 H   0  0  0  0  0  0  0  0  0  0  0  0
    8.8323   -0.7833   -3.8747 H   0  0  0  0  0  0  0  0  0  0  0  0
    8.6070   -1.8361   -6.1324 H   0  0  0  0  0  0  0  0  0  0  0  0
    8.6070   -3.4427   -5.3799 H   0  0  0  0  0  0  0  0  0  0  0  0
   11.0232   -2.0310   -4.4575 H   0  0  0  0  0  0  0  0  0  0  0  0
   10.6629   -3.3250   -7.2199 H   0  0  0  0  0  0  0  0  0  0  0  0
   12.2556   -2.9173   -6.3494 H   0  0  0  0  0  0  0  0  0  0  0  0
  1  2  1  0  0  0  0
  1 12  1  0  0  0  0
  2  3  1  0  0  0  0
  2 13  1  0  0  0  0
  2 14  1  0  0  0  0
  3  4  1  0  0  0  0
  3 15  1  0  0  0  0
  3 16  1  0  0  0  0
  4  5  1  0  0  0  0
  4 17  1  0  0  0  0
  4 18  1  0  0  0  0
  5  6  1  0  0  0  0
  5 19  1  0  0  0  0
  5 20  1  0  0  0  0
  6  7  1  0  0  0  0
  6 21  1  0  0  0  0
  6 22  1  0  0  0  0
  7  8  1  0  0  0  0
  7 23  1  0  0  0  0
  7 24  1  0  0  0  0
  8  9  1  0  0  0  0
  8 25  1  0  0  0  0
  8 26  1  0  0  0  0
  9 10  1  0  0  0  0
  9 27  1  0  0  0  0
  9 28  1  0  0  0  0
 10 11  2  0  0  0  0
 10 29  1  0  0  0  0
 11 30  1  0  0  0  0
 11 31  1  0  0  0  0
M  END
$$$$
