
 OpenBabel07122215493D

 29 29  0  0  0  0  0  0  0  0999 V2000
    0.8753    0.0863    0.0407 C   0  0  0  0  0  0  0  0  0  0  0  0
    2.3869    0.0644    0.0120 C   0  0  0  0  0  0  0  0  0  0  0  0
    3.0044    0.9723    1.0773 C   0  0  0  0  0  0  0  0  0  0  0  0
    4.5627    0.9648    1.0941 C   0  0  0  0  0  0  0  0  0  0  0  0
    5.0779   -0.4701    1.3200 C   0  0  0  0  0  0  0  0  0  0  0  0
    5.1164    1.4380   -0.2599 C   0  0  0  0  0  0  0  0  0  0  0  0
    4.9329    0.8632   -1.3374 O   0  0  0  0  0  0  0  0  0  0  0  0
    4.9856    1.9174    2.2304 C   0  0  0  0  0  0  0  0  0  0  0  0
    5.3449    1.4429    3.5044 C   0  0  0  0  0  0  0  0  0  0  0  0
    5.4737    2.3164    4.5833 C   0  0  0  0  0  0  0  0  0  0  0  0
    5.3472    3.6873    4.3897 C   0  0  0  0  0  0  0  0  0  0  0  0
    5.0628    4.1859    3.1235 C   0  0  0  0  0  0  0  0  0  0  0  0
    4.8664    3.3097    2.0587 C   0  0  0  0  0  0  0  0  0  0  0  0
    0.4935   -0.5646   -0.7518 H   0  0  0  0  0  0  0  0  0  0  0  0
    0.5003    1.0986   -0.1343 H   0  0  0  0  0  0  0  0  0  0  0  0
    0.4979   -0.2751    1.0006 H   0  0  0  0  0  0  0  0  0  0  0  0
    2.6942    0.3866   -0.9848 H   0  0  0  0  0  0  0  0  0  0  0  0
    2.7178   -0.9687    0.1471 H   0  0  0  0  0  0  0  0  0  0  0  0
    2.6301    0.6612    2.0649 H   0  0  0  0  0  0  0  0  0  0  0  0
    2.6288    1.9946    0.9277 H   0  0  0  0  0  0  0  0  0  0  0  0
    4.8034   -1.1454    0.5045 H   0  0  0  0  0  0  0  0  0  0  0  0
    4.6643   -0.9058    2.2374 H   0  0  0  0  0  0  0  0  0  0  0  0
    6.1708   -0.4897    1.3877 H   0  0  0  0  0  0  0  0  0  0  0  0
    5.7236    2.3545   -0.2577 H   0  0  0  0  0  0  0  0  0  0  0  0
    5.4925    0.3850    3.7046 H   0  0  0  0  0  0  0  0  0  0  0  0
    5.6460    1.9177    5.5798 H   0  0  0  0  0  0  0  0  0  0  0  0
    5.4618    4.3661    5.2289 H   0  0  0  0  0  0  0  0  0  0  0  0
    4.9511    5.2551    2.9675 H   0  0  0  0  0  0  0  0  0  0  0  0
    4.5807    3.7350    1.0986 H   0  0  0  0  0  0  0  0  0  0  0  0
  1  2  1  0  0  0  0
  1 14  1  0  0  0  0
  1 15  1  0  0  0  0
  1 16  1  0  0  0  0
  2  3  1  0  0  0  0
  2 17  1  0  0  0  0
  2 18  1  0  0  0  0
  3  4  1  0  0  0  0
  3 19  1  0  0  0  0
  3 20  1  0  0  0  0
  4  5  1  0  0  0  0
  4  6  1  0  0  0  0
  4  8  1  0  0  0  0
  5 21  1  0  0  0  0
  5 22  1  0  0  0  0
  5 23  1  0  0  0  0
  6  7  2  0  0  0  0
  6 24  1  0  0  0  0
  8  9  1  0  0  0  0
  8 13  2  0  0  0  0
  9 10  2  0  0  0  0
  9 25  1  0  0  0  0
 10 11  1  0  0  0  0
 10 26  1  0  0  0  0
 11 12  2  0  0  0  0
 11 27  1  0  0  0  0
 12 13  1  0  0  0  0
 12 28  1  0  0  0  0
 13 29  1  0  0  0  0
M  END
$$$$
