
 OpenBabel07222214433D

 29 28  0  0  0  0  0  0  0  0999 V2000
    1.0648   -0.0313    0.0441 C   0  0  0  0  0  0  0  0  0  0  0  0
    2.5818   -0.0249    0.0509 C   0  0  0  0  0  0  0  0  0  0  0  0
    3.1091    0.9489    1.0979 C   0  0  0  0  0  0  0  0  0  0  0  0
    4.6324    0.9568    1.1064 C   0  0  0  0  0  0  0  0  0  0  0  0
    5.1590    1.9317    2.1544 C   0  0  0  0  0  0  0  0  0  0  0  0
    6.6571    1.9454    2.1692 C   0  0  0  0  0  0  0  0  0  0  0  0
    7.3560    2.7240    3.0063 C   0  0  0  0  0  0  0  0  0  0  0  0
    8.8543    2.7435    3.0272 C   0  0  0  0  0  0  0  0  0  0  0  0
    9.3750    3.7184    4.0753 C   0  0  0  0  0  0  0  0  0  0  0  0
   10.8776    3.7375    4.0959 C   0  0  0  0  0  0  0  0  0  0  0  0
   11.5194    4.4513    4.8632 O   0  0  0  0  0  0  0  0  0  0  0  0
    0.6914   -0.7311   -0.7084 H   0  0  0  0  0  0  0  0  0  0  0  0
    0.6745    0.9649   -0.1876 H   0  0  0  0  0  0  0  0  0  0  0  0
    0.6745   -0.3343    1.0208 H   0  0  0  0  0  0  0  0  0  0  0  0
    2.9516    0.2574   -0.9418 H   0  0  0  0  0  0  0  0  0  0  0  0
    2.9516   -1.0354    0.2607 H   0  0  0  0  0  0  0  0  0  0  0  0
    2.7354    0.6660    2.0897 H   0  0  0  0  0  0  0  0  0  0  0  0
    2.7354    1.9586    0.8874 H   0  0  0  0  0  0  0  0  0  0  0  0
    5.0052    1.2389    0.1134 H   0  0  0  0  0  0  0  0  0  0  0  0
    5.0052   -0.0540    1.3159 H   0  0  0  0  0  0  0  0  0  0  0  0
    4.7854    1.6402    3.1437 H   0  0  0  0  0  0  0  0  0  0  0  0
    4.7854    2.9395    1.9353 H   0  0  0  0  0  0  0  0  0  0  0  0
    7.1834    1.2967    1.4717 H   0  0  0  0  0  0  0  0  0  0  0  0
    6.8187    3.3692    3.6999 H   0  0  0  0  0  0  0  0  0  0  0  0
    9.2304    3.0300    2.0370 H   0  0  0  0  0  0  0  0  0  0  0  0
    9.2304    1.7351    3.2414 H   0  0  0  0  0  0  0  0  0  0  0  0
    9.0248    3.4271    5.0718 H   0  0  0  0  0  0  0  0  0  0  0  0
    9.0248    4.7333    3.8569 H   0  0  0  0  0  0  0  0  0  0  0  0
   11.3958    3.0746    3.3831 H   0  0  0  0  0  0  0  0  0  0  0  0
  1  2  1  0  0  0  0
  1 12  1  0  0  0  0
  1 13  1  0  0  0  0
  1 14  1  0  0  0  0
  2  3  1  0  0  0  0
  2 15  1  0  0  0  0
  2 16  1  0  0  0  0
  3  4  1  0  0  0  0
  3 17  1  0  0  0  0
  3 18  1  0  0  0  0
  4  5  1  0  0  0  0
  4 19  1  0  0  0  0
  4 20  1  0  0  0  0
  5  6  1  0  0  0  0
  5 21  1  0  0  0  0
  5 22  1  0  0  0  0
  6  7  2  0  0  0  0
  6 23  1  0  0  0  0
  7  8  1  0  0  0  0
  7 24  1  0  0  0  0
  8  9  1  0  0  0  0
  8 25  1  0  0  0  0
  8 26  1  0  0  0  0
  9 10  1  0  0  0  0
  9 27  1  0  0  0  0
  9 28  1  0  0  0  0
 10 11  2  0  0  0  0
 10 29  1  0  0  0  0
M  END
$$$$
