
 OpenBabel07222214443D

 47 49  0  0  1  0  0  0  0  0999 V2000
    0.9519    0.0020    0.2071 C   0  0  0  0  0  0  0  0  0  0  0  0
    2.4619    0.0088    0.1791 C   0  0  2  0  0  0  0  0  0  0  0  0
    3.0622    1.3956    0.3103 C   0  0  0  0  0  0  0  0  0  0  0  0
    3.9642    1.6206   -0.9140 C   0  0  0  0  0  0  0  0  0  0  0  0
    3.5035    0.6002   -1.9735 C   0  0  2  0  0  0  0  0  0  0  0  0
    3.0344   -0.5095   -1.1088 C   0  0  2  0  0  0  0  0  0  0  0  0
    4.3075   -1.5296   -0.6821 C   0  0  0  0  0  0  0  0  0  0  0  0
    3.7834   -2.8751   -0.2193 C   0  0  0  0  0  0  0  0  0  0  0  0
    3.0587   -3.3893   -1.4391 C   0  0  1  0  0  0  0  0  0  0  0  0
    3.0893   -2.0622   -2.6744 C   0  0  2  0  0  0  0  0  0  0  0  0
    2.1165   -0.9886   -2.2074 C   0  0  0  0  0  0  0  0  0  0  0  0
    4.2540   -0.4496   -3.1099 C   0  0  0  0  0  0  0  0  0  0  0  0
    6.0165    0.0316   -3.8745 C   0  0  0  0  0  0  0  0  0  0  0  0
    5.2921    0.3260   -2.9674 C   0  0  0  0  0  0  0  0  0  0  0  0
    3.5151   -4.7238   -2.0465 C   0  0  0  0  0  0  0  0  0  0  0  0
    1.5819   -3.8482   -1.0187 O   0  0  0  0  0  0  0  0  0  0  0  0
    1.1507   -5.0207   -0.3800 C   0  0  0  0  0  0  0  0  0  0  0  0
    0.0908   -5.5919   -0.6540 O   0  0  0  0  0  0  0  0  0  0  0  0
    1.9668   -5.5271    0.7817 C   0  0  0  0  0  0  0  0  0  0  0  0
    0.5834    0.3830    1.1580 H   0  0  0  0  0  0  0  0  0  0  0  0
    0.5774   -1.0207    0.0737 H   0  0  0  0  0  0  0  0  0  0  0  0
    0.5584    0.6329   -0.5962 H   0  0  0  0  0  0  0  0  0  0  0  0
    2.8165   -0.6076    1.0153 H   0  0  0  0  0  0  0  0  0  0  0  0
    3.6529    1.4650    1.2296 H   0  0  0  0  0  0  0  0  0  0  0  0
    2.2633    2.1404    0.3611 H   0  0  0  0  0  0  0  0  0  0  0  0
    5.0133    1.5326   -0.6314 H   0  0  0  0  0  0  0  0  0  0  0  0
    3.7942    2.6485   -1.2681 H   0  0  0  0  0  0  0  0  0  0  0  0
    2.7492    1.1633   -2.5559 H   0  0  0  0  0  0  0  0  0  0  0  0
    5.0245   -1.0497   -0.0178 H   0  0  0  0  0  0  0  0  0  0  0  0
    4.9594   -1.8371   -1.5203 H   0  0  0  0  0  0  0  0  0  0  0  0
    3.1598   -2.7604    0.6699 H   0  0  0  0  0  0  0  0  0  0  0  0
    4.6118   -3.5493    0.0219 H   0  0  0  0  0  0  0  0  0  0  0  0
    2.0355   -2.4024   -2.7886 H   0  0  0  0  0  0  0  0  0  0  0  0
    1.0270   -0.9651   -2.0158 H   0  0  0  0  0  0  0  0  0  0  0  0
    1.9850   -0.5260   -3.2334 H   0  0  0  0  0  0  0  0  0  0  0  0
    6.2807   -0.7257   -4.5984 H   0  0  0  0  0  0  0  0  0  0  0  0
    7.0833    0.4539   -3.0180 H   0  0  0  0  0  0  0  0  0  0  0  0
    6.0687    1.3541   -4.2990 H   0  0  0  0  0  0  0  0  0  0  0  0
    5.5065    1.3552   -2.5025 H   0  0  0  0  0  0  0  0  0  0  0  0
    4.6828    0.6126   -4.3342 H   0  0  0  0  0  0  0  0  0  0  0  0
    6.1801   -0.7638   -2.4803 H   0  0  0  0  0  0  0  0  0  0  0  0
    4.5781   -4.7377   -2.2465 H   0  0  0  0  0  0  0  0  0  0  0  0
    2.9239   -4.9393   -2.9481 H   0  0  0  0  0  0  0  0  0  0  0  0
    3.3017   -5.5887   -1.3997 H   0  0  0  0  0  0  0  0  0  0  0  0
    2.9602   -5.0995    0.7799 H   0  0  0  0  0  0  0  0  0  0  0  0
    2.0849   -6.6208    0.7479 H   0  0  0  0  0  0  0  0  0  0  0  0
    1.4587   -5.2619    1.7138 H   0  0  0  0  0  0  0  0  0  0  0  0
  1  2  1  0  0  0  0
  1 20  1  0  0  0  0
  1 21  1  0  0  0  0
  1 22  1  0  0  0  0
  2  3  1  0  0  0  0
  2  6  1  0  0  0  0
  2 23  1  1  0  0  0
  3  4  1  0  0  0  0
  3 24  1  0  0  0  0
  3 25  1  0  0  0  0
  4  5  1  0  0  0  0
  4 26  1  0  0  0  0
  4 27  1  0  0  0  0
  5  6  1  0  0  0  0
  5 12  1  0  0  0  0
  5 28  1  6  0  0  0
  6  7  1  6  0  0  0
  6 11  1  0  0  0  0
  7  8  1  0  0  0  0
  7 29  1  0  0  0  0
  7 30  1  0  0  0  0
  8  9  1  0  0  0  0
  8 31  1  0  0  0  0
  8 32  1  0  0  0  0
  9 10  1  0  0  0  0
  9 15  1  0  0  0  0
  9 16  1  1  0  0  0
 10 11  1  0  0  0  0
 10 12  1  0  0  0  0
 10 33  1  1  0  0  0
 11 34  1  0  0  0  0
 11 35  1  0  0  0  0
 12 13  1  0  0  0  0
 12 14  1  0  0  0  0
 13 36  1  0  0  0  0
 13 37  1  0  0  0  0
 13 38  1  0  0  0  0
 14 39  1  0  0  0  0
 14 40  1  0  0  0  0
 14 41  1  0  0  0  0
 15 42  1  0  0  0  0
 15 43  1  0  0  0  0
 15 44  1  0  0  0  0
 16 17  1  0  0  0  0
 17 18  2  0  0  0  0
 17 19  1  0  0  0  0
 19 45  1  0  0  0  0
 19 46  1  0  0  0  0
 19 47  1  0  0  0  0
M  END
$$$$
