
 OpenBabel07222214443D

 16 15  0  0  0  0  0  0  0  0999 V2000
    1.0594   -0.0359   -0.0635 C   0  0  0  0  0  0  0  0  0  0  0  0
    2.5894   -0.0527   -0.0882 C   0  0  0  0  0  0  0  0  0  0  0  0
    3.0823   -1.3981   -0.6271 C   0  0  0  0  0  0  0  0  0  0  0  0
    3.1178    1.1225   -0.9272 C   0  0  0  0  0  0  0  0  0  0  0  0
    4.5765    1.1580   -0.9393 N   0  0  0  0  0  0  0  0  0  0  0  0
    0.6718   -0.8520    0.5559 H   0  0  0  0  0  0  0  0  0  0  0  0
    0.6456   -0.1515   -1.0712 H   0  0  0  0  0  0  0  0  0  0  0  0
    0.6843    0.9055    0.3512 H   0  0  0  0  0  0  0  0  0  0  0  0
    2.9455    0.0580    0.9446 H   0  0  0  0  0  0  0  0  0  0  0  0
    2.7462   -1.5547   -1.6578 H   0  0  0  0  0  0  0  0  0  0  0  0
    2.7035   -2.2239   -0.0162 H   0  0  0  0  0  0  0  0  0  0  0  0
    4.1753   -1.4576   -0.6149 H   0  0  0  0  0  0  0  0  0  0  0  0
    2.7429    2.0697   -0.5223 H   0  0  0  0  0  0  0  0  0  0  0  0
    2.7559    1.0419   -1.9582 H   0  0  0  0  0  0  0  0  0  0  0  0
    4.9260    1.2752    0.0095 H   0  0  0  0  0  0  0  0  0  0  0  0
    4.8968    1.9653   -1.4726 H   0  0  0  0  0  0  0  0  0  0  0  0
  1  2  1  0  0  0  0
  1  6  1  0  0  0  0
  1  7  1  0  0  0  0
  1  8  1  0  0  0  0
  2  3  1  0  0  0  0
  2  4  1  0  0  0  0
  2  9  1  0  0  0  0
  3 10  1  0  0  0  0
  3 11  1  0  0  0  0
  3 12  1  0  0  0  0
  4  5  1  0  0  0  0
  4 13  1  0  0  0  0
  4 14  1  0  0  0  0
  5 15  1  0  0  0  0
  5 16  1  0  0  0  0
M  END
$$$$
