
 OpenBabel07122215493D

 41 41  0  0  0  0  0  0  0  0999 V2000
    0.9827    0.0536   -0.0254 C   0  0  0  0  0  0  0  0  0  0  0  0
    2.4981    0.0430    0.0403 C   0  0  0  0  0  0  0  0  0  0  0  0
    2.9884    0.9632   -0.9385 O   0  0  0  0  0  0  0  0  0  0  0  0
    3.0109    0.4116    1.4458 C   0  0  0  0  0  0  0  0  0  0  0  0
    2.5061   -0.5541    2.5182 C   0  0  0  0  0  0  0  0  0  0  0  0
    4.5389    0.4355    1.4189 C   0  0  0  0  0  0  0  0  0  0  0  0
    5.1343    0.9107    2.7324 C   0  0  0  0  0  0  0  0  0  0  0  0
    6.6712    0.9437    2.7648 C   0  0  0  0  0  0  0  0  0  0  0  0
    7.3128    1.3790    1.4311 C   0  0  0  0  0  0  0  0  0  0  0  0
    7.4780    2.8446    1.6269 C   0  0  0  0  0  0  0  0  0  0  0  0
    7.4409    3.1816    2.9179 C   0  0  0  0  0  0  0  0  0  0  0  0
    7.6410    4.5591    3.4476 C   0  0  0  0  0  0  0  0  0  0  0  0
    7.2137    1.9743    3.8149 C   0  0  0  0  0  0  0  0  0  0  0  0
    6.2616    2.2620    4.9903 C   0  0  0  0  0  0  0  0  0  0  0  0
    8.5445    1.4735    4.3968 C   0  0  0  0  0  0  0  0  0  0  0  0
    0.6426   -0.1803   -1.0368 H   0  0  0  0  0  0  0  0  0  0  0  0
    0.5991    1.0475    0.2297 H   0  0  0  0  0  0  0  0  0  0  0  0
    0.5453   -0.6785    0.6564 H   0  0  0  0  0  0  0  0  0  0  0  0
    2.8776   -0.9456   -0.2420 H   0  0  0  0  0  0  0  0  0  0  0  0
    2.7120    1.8593   -0.6805 H   0  0  0  0  0  0  0  0  0  0  0  0
    2.6691    1.4280    1.6891 H   0  0  0  0  0  0  0  0  0  0  0  0
    2.8635   -1.5687    2.3153 H   0  0  0  0  0  0  0  0  0  0  0  0
    1.4166   -0.5672    2.5725 H   0  0  0  0  0  0  0  0  0  0  0  0
    2.8429   -0.2666    3.5175 H   0  0  0  0  0  0  0  0  0  0  0  0
    4.8144    1.1495    0.6383 H   0  0  0  0  0  0  0  0  0  0  0  0
    4.9468   -0.5445    1.1460 H   0  0  0  0  0  0  0  0  0  0  0  0
    4.8238    0.2595    3.5578 H   0  0  0  0  0  0  0  0  0  0  0  0
    4.7042    1.8978    2.9245 H   0  0  0  0  0  0  0  0  0  0  0  0
    7.0069   -0.0758    3.0012 H   0  0  0  0  0  0  0  0  0  0  0  0
    6.7301    1.1684    0.5362 H   0  0  0  0  0  0  0  0  0  0  0  0
    8.2824    0.8953    1.2806 H   0  0  0  0  0  0  0  0  0  0  0  0
    7.6384    3.5298    0.8028 H   0  0  0  0  0  0  0  0  0  0  0  0
    7.8008    5.2742    2.6337 H   0  0  0  0  0  0  0  0  0  0  0  0
    8.5180    4.5916    4.0996 H   0  0  0  0  0  0  0  0  0  0  0  0
    6.7653    4.8910    4.0116 H   0  0  0  0  0  0  0  0  0  0  0  0
    5.3052    2.6935    4.6792 H   0  0  0  0  0  0  0  0  0  0  0  0
    6.7010    2.9874    5.6839 H   0  0  0  0  0  0  0  0  0  0  0  0
    6.0508    1.3473    5.5555 H   0  0  0  0  0  0  0  0  0  0  0  0
    9.2755    1.2406    3.6156 H   0  0  0  0  0  0  0  0  0  0  0  0
    8.3851    0.5606    4.9831 H   0  0  0  0  0  0  0  0  0  0  0  0
    8.9896    2.2221    5.0608 H   0  0  0  0  0  0  0  0  0  0  0  0
  1  2  1  0  0  0  0
  1 16  1  0  0  0  0
  1 17  1  0  0  0  0
  1 18  1  0  0  0  0
  2  3  1  0  0  0  0
  2  4  1  0  0  0  0
  2 19  1  0  0  0  0
  3 20  1  0  0  0  0
  4  5  1  0  0  0  0
  4  6  1  0  0  0  0
  4 21  1  0  0  0  0
  5 22  1  0  0  0  0
  5 23  1  0  0  0  0
  5 24  1  0  0  0  0
  6  7  1  0  0  0  0
  6 25  1  0  0  0  0
  6 26  1  0  0  0  0
  7  8  1  0  0  0  0
  7 27  1  0  0  0  0
  7 28  1  0  0  0  0
  8  9  1  0  0  0  0
  8 13  1  0  0  0  0
  8 29  1  0  0  0  0
  9 10  1  0  0  0  0
  9 30  1  0  0  0  0
  9 31  1  0  0  0  0
 10 11  2  0  0  0  0
 10 32  1  0  0  0  0
 11 12  1  0  0  0  0
 11 13  1  0  0  0  0
 12 33  1  0  0  0  0
 12 34  1  0  0  0  0
 12 35  1  0  0  0  0
 13 14  1  0  0  0  0
 13 15  1  0  0  0  0
 14 36  1  0  0  0  0
 14 37  1  0  0  0  0
 14 38  1  0  0  0  0
 15 39  1  0  0  0  0
 15 40  1  0  0  0  0
 15 41  1  0  0  0  0
M  END
$$$$
