
 OpenBabel07202215583D

 30 31  0  0  0  0  0  0  0  0999 V2000
    0.9969   -0.0965    0.0447 C   0  0  0  0  0  0  0  0  0  0  0  0
    2.4232   -0.1460    0.0256 O   0  0  0  0  0  0  0  0  0  0  0  0
    3.0099   -1.0081   -0.8736 C   0  0  0  0  0  0  0  0  0  0  0  0
    2.5856   -1.2282   -2.1902 C   0  0  0  0  0  0  0  0  0  0  0  0
    3.3363   -2.0765   -3.0104 C   0  0  0  0  0  0  0  0  0  0  0  0
    4.5007   -2.7077   -2.5502 C   0  0  0  0  0  0  0  0  0  0  0  0
    5.2024   -3.6475   -3.4976 C   0  0  0  0  0  0  0  0  0  0  0  0
    6.6134   -4.0138   -3.0606 C   0  0  0  0  0  0  0  0  0  0  0  0
    6.6114   -4.3820   -1.5830 C   0  0  0  0  0  0  0  0  0  0  0  0
    6.1817   -3.1850   -0.7224 C   0  0  0  0  0  0  0  0  0  0  0  0
    4.9268   -2.5086   -1.2330 C   0  0  0  0  0  0  0  0  0  0  0  0
    4.1890   -1.6316   -0.4107 C   0  0  0  0  0  0  0  0  0  0  0  0
    1.4750   -0.5707   -2.6400 O   0  0  0  0  0  0  0  0  0  0  0  0
    1.0093   -0.8450   -3.9518 C   0  0  0  0  0  0  0  0  0  0  0  0
    0.6995    0.6521    0.7864 H   0  0  0  0  0  0  0  0  0  0  0  0
    0.5784   -1.0612    0.3476 H   0  0  0  0  0  0  0  0  0  0  0  0
    0.5454    0.2465   -0.8869 H   0  0  0  0  0  0  0  0  0  0  0  0
    3.0422   -2.2651   -4.0354 H   0  0  0  0  0  0  0  0  0  0  0  0
    5.2423   -3.2068   -4.5006 H   0  0  0  0  0  0  0  0  0  0  0  0
    4.5974   -4.5605   -3.5590 H   0  0  0  0  0  0  0  0  0  0  0  0
    7.2991   -3.1762   -3.2404 H   0  0  0  0  0  0  0  0  0  0  0  0
    6.9691   -4.8554   -3.6666 H   0  0  0  0  0  0  0  0  0  0  0  0
    7.6060   -4.7293   -1.2821 H   0  0  0  0  0  0  0  0  0  0  0  0
    5.9188   -5.2190   -1.4247 H   0  0  0  0  0  0  0  0  0  0  0  0
    6.9941   -2.4476   -0.7032 H   0  0  0  0  0  0  0  0  0  0  0  0
    6.0271   -3.5369    0.3041 H   0  0  0  0  0  0  0  0  0  0  0  0
    4.5223   -1.4331    0.6057 H   0  0  0  0  0  0  0  0  0  0  0  0
    0.0779   -0.2902   -4.0949 H   0  0  0  0  0  0  0  0  0  0  0  0
    0.7840   -1.9090   -4.0828 H   0  0  0  0  0  0  0  0  0  0  0  0
    1.7282   -0.4926   -4.6978 H   0  0  0  0  0  0  0  0  0  0  0  0
  1  2  1  0  0  0  0
  1 15  1  0  0  0  0
  1 16  1  0  0  0  0
  1 17  1  0  0  0  0
  2  3  1  0  0  0  0
  3  4  2  0  0  0  0
  3 12  1  0  0  0  0
  4  5  1  0  0  0  0
  4 13  1  0  0  0  0
  5  6  2  0  0  0  0
  5 18  1  0  0  0  0
  6  7  1  0  0  0  0
  6 11  1  0  0  0  0
  7  8  1  0  0  0  0
  7 19  1  0  0  0  0
  7 20  1  0  0  0  0
  8  9  1  0  0  0  0
  8 21  1  0  0  0  0
  8 22  1  0  0  0  0
  9 10  1  0  0  0  0
  9 23  1  0  0  0  0
  9 24  1  0  0  0  0
 10 11  1  0  0  0  0
 10 25  1  0  0  0  0
 10 26  1  0  0  0  0
 11 12  2  0  0  0  0
 12 27  1  0  0  0  0
 13 14  1  0  0  0  0
 14 28  1  0  0  0  0
 14 29  1  0  0  0  0
 14 30  1  0  0  0  0
M  END
$$$$
