
 OpenBabel07202215583D

 18 17  0  0  0  0  0  0  0  0999 V2000
    1.0485    0.0472   -0.0415 C   0  0  0  0  0  0  0  0  0  0  0  0
    2.5844    0.0949   -0.0229 C   0  0  0  0  0  0  0  0  0  0  0  0
    3.0748    0.0708   -1.4781 C   0  0  0  0  0  0  0  0  0  0  0  0
    3.1029    1.3299    0.7609 C   0  0  0  0  0  0  0  0  0  0  0  0
    2.6252    1.3544    2.2142 C   0  0  0  0  0  0  0  0  0  0  0  0
    4.9371    1.4238    0.7915 S   0  0  0  0  0  0  0  0  0  0  0  0
    0.6923   -0.8214   -0.6062 H   0  0  0  0  0  0  0  0  0  0  0  0
    0.6332    0.9469   -0.5075 H   0  0  0  0  0  0  0  0  0  0  0  0
    0.6303   -0.0404    0.9654 H   0  0  0  0  0  0  0  0  0  0  0  0
    2.9382   -0.8191    0.4709 H   0  0  0  0  0  0  0  0  0  0  0  0
    2.7437    0.9633   -2.0188 H   0  0  0  0  0  0  0  0  0  0  0  0
    2.6806   -0.8069   -2.0030 H   0  0  0  0  0  0  0  0  0  0  0  0
    4.1649    0.0150   -1.5455 H   0  0  0  0  0  0  0  0  0  0  0  0
    2.7545    2.2421    0.2645 H   0  0  0  0  0  0  0  0  0  0  0  0
    2.9286    0.4511    2.7548 H   0  0  0  0  0  0  0  0  0  0  0  0
    1.5349    1.4260    2.2716 H   0  0  0  0  0  0  0  0  0  0  0  0
    3.0159    2.2270    2.7502 H   0  0  0  0  0  0  0  0  0  0  0  0
    5.1531    0.2255    1.3535 H   0  0  0  0  0  0  0  0  0  0  0  0
  1  2  1  0  0  0  0
  1  7  1  0  0  0  0
  1  8  1  0  0  0  0
  1  9  1  0  0  0  0
  2  3  1  0  0  0  0
  2  4  1  0  0  0  0
  2 10  1  0  0  0  0
  3 11  1  0  0  0  0
  3 12  1  0  0  0  0
  3 13  1  0  0  0  0
  4  5  1  0  0  0  0
  4  6  1  0  0  0  0
  4 14  1  0  0  0  0
  5 15  1  0  0  0  0
  5 16  1  0  0  0  0
  5 17  1  0  0  0  0
  6 18  1  0  0  0  0
M  END
$$$$
