
 OpenBabel07222214433D

 28 27  0  0  0  0  0  0  0  0999 V2000
    0.9056    0.0437   -0.0371 C   0  0  0  0  0  0  0  0  0  0  0  0
    2.4220    0.0415   -0.0448 C   0  0  0  0  0  0  0  0  0  0  0  0
    2.9465   -0.3561   -1.4180 C   0  0  0  0  0  0  0  0  0  0  0  0
    4.4679   -0.3596   -1.4302 C   0  0  0  0  0  0  0  0  0  0  0  0
    4.9840   -0.7579   -2.8055 C   0  0  0  0  0  0  0  0  0  0  0  0
    6.5053   -0.7615   -2.8180 C   0  0  0  0  0  0  0  0  0  0  0  0
    7.0291   -1.1592   -4.1915 C   0  0  0  0  0  0  0  0  0  0  0  0
    8.5504   -1.1611   -4.1982 C   0  0  0  0  0  0  0  0  0  0  0  0
    9.0823   -1.5522   -5.5486 C   0  0  0  0  0  0  0  0  0  0  0  0
   10.2848   -1.6225   -5.7914 O   0  0  0  0  0  0  0  0  0  0  0  0
    0.5316    0.3294    0.9495 H   0  0  0  0  0  0  0  0  0  0  0  0
    0.5161   -0.9501   -0.2800 H   0  0  0  0  0  0  0  0  0  0  0  0
    0.5161    0.7541   -0.7734 H   0  0  0  0  0  0  0  0  0  0  0  0
    2.7926   -0.6582    0.7134 H   0  0  0  0  0  0  0  0  0  0  0  0
    2.7926    1.0381    0.2223 H   0  0  0  0  0  0  0  0  0  0  0  0
    2.5730    0.3432   -2.1763 H   0  0  0  0  0  0  0  0  0  0  0  0
    2.5730   -1.3524   -1.6853 H   0  0  0  0  0  0  0  0  0  0  0  0
    4.8446   -1.0602   -0.6749 H   0  0  0  0  0  0  0  0  0  0  0  0
    4.8446    0.6361   -1.1661 H   0  0  0  0  0  0  0  0  0  0  0  0
    4.6071   -0.0573   -3.5608 H   0  0  0  0  0  0  0  0  0  0  0  0
    4.6071   -1.7536   -3.0697 H   0  0  0  0  0  0  0  0  0  0  0  0
    6.8790   -1.4611   -2.0602 H   0  0  0  0  0  0  0  0  0  0  0  0
    6.8790    0.2348   -2.5512 H   0  0  0  0  0  0  0  0  0  0  0  0
    6.6507   -0.4627   -4.9504 H   0  0  0  0  0  0  0  0  0  0  0  0
    6.6507   -2.1534   -4.4609 H   0  0  0  0  0  0  0  0  0  0  0  0
    8.9284   -1.8762   -3.4601 H   0  0  0  0  0  0  0  0  0  0  0  0
    8.9284   -0.1624   -3.9564 H   0  0  0  0  0  0  0  0  0  0  0  0
    8.3376   -1.7784   -6.3299 H   0  0  0  0  0  0  0  0  0  0  0  0
  1  2  1  0  0  0  0
  1 11  1  0  0  0  0
  1 12  1  0  0  0  0
  1 13  1  0  0  0  0
  2  3  1  0  0  0  0
  2 14  1  0  0  0  0
  2 15  1  0  0  0  0
  3  4  1  0  0  0  0
  3 16  1  0  0  0  0
  3 17  1  0  0  0  0
  4  5  1  0  0  0  0
  4 18  1  0  0  0  0
  4 19  1  0  0  0  0
  5  6  1  0  0  0  0
  5 20  1  0  0  0  0
  5 21  1  0  0  0  0
  6  7  1  0  0  0  0
  6 22  1  0  0  0  0
  6 23  1  0  0  0  0
  7  8  1  0  0  0  0
  7 24  1  0  0  0  0
  7 25  1  0  0  0  0
  8  9  1  0  0  0  0
  8 26  1  0  0  0  0
  8 27  1  0  0  0  0
  9 10  2  0  0  0  0
  9 28  1  0  0  0  0
M  END
$$$$
