
 OpenBabel07202215583D

 45 47  0  0  0  0  0  0  0  0999 V2000
    1.0317    0.0615   -0.0540 C   0  0  0  0  0  0  0  0  0  0  0  0
    2.5619    0.0877   -0.0559 C   0  0  0  0  0  0  0  0  0  0  0  0
    3.0965    1.5188   -0.1847 C   0  0  0  0  0  0  0  0  0  0  0  0
    2.8238    2.0420   -1.4863 O   0  0  0  0  0  0  0  0  0  0  0  0
    3.5936    1.3699   -2.4860 C   0  0  0  0  0  0  0  0  0  0  0  0
    3.5359   -0.1299   -2.3783 C   0  0  0  0  0  0  0  0  0  0  0  0
    3.9992   -0.9041   -3.4472 C   0  0  0  0  0  0  0  0  0  0  0  0
    3.9711   -2.2804   -3.3417 C   0  0  0  0  0  0  0  0  0  0  0  0
    3.5005   -2.9021   -2.1795 C   0  0  0  0  0  0  0  0  0  0  0  0
    3.0578   -2.1491   -1.1020 C   0  0  0  0  0  0  0  0  0  0  0  0
    3.0764   -0.7576   -1.1986 C   0  0  0  0  0  0  0  0  0  0  0  0
    3.5861   -4.4026   -2.2699 C   0  0  0  0  0  0  0  0  0  0  0  0
    2.2893   -5.0684   -1.7884 C   0  0  0  0  0  0  0  0  0  0  0  0
    4.7632   -4.9026   -1.4204 C   0  0  0  0  0  0  0  0  0  0  0  0
    3.7808   -4.5949   -3.8144 C   0  0  0  0  0  0  0  0  0  0  0  0
    4.5476   -5.8645   -4.1783 C   0  0  0  0  0  0  0  0  0  0  0  0
    4.4447   -3.2856   -4.3630 C   0  0  0  0  0  0  0  0  0  0  0  0
    3.9285   -2.9485   -5.7694 C   0  0  0  0  0  0  0  0  0  0  0  0
    5.9800   -3.3205   -4.3843 C   0  0  0  0  0  0  0  0  0  0  0  0
    0.6386    0.6411    0.7868 H   0  0  0  0  0  0  0  0  0  0  0  0
    0.6511   -0.9620    0.0416 H   0  0  0  0  0  0  0  0  0  0  0  0
    0.6201    0.4780   -0.9801 H   0  0  0  0  0  0  0  0  0  0  0  0
    2.9263   -0.3288    0.8923 H   0  0  0  0  0  0  0  0  0  0  0  0
    4.1769    1.5610    0.0055 H   0  0  0  0  0  0  0  0  0  0  0  0
    2.6097    2.1727    0.5455 H   0  0  0  0  0  0  0  0  0  0  0  0
    4.6373    1.6981   -2.4144 H   0  0  0  0  0  0  0  0  0  0  0  0
    3.2007    1.6797   -3.4605 H   0  0  0  0  0  0  0  0  0  0  0  0
    4.3796   -0.4244   -4.3460 H   0  0  0  0  0  0  0  0  0  0  0  0
    2.6993   -2.6362   -0.1987 H   0  0  0  0  0  0  0  0  0  0  0  0
    2.1394   -4.9141   -0.7131 H   0  0  0  0  0  0  0  0  0  0  0  0
    2.3108   -6.1476   -1.9675 H   0  0  0  0  0  0  0  0  0  0  0  0
    1.4092   -4.6553   -2.2960 H   0  0  0  0  0  0  0  0  0  0  0  0
    4.6079   -4.6934   -0.3570 H   0  0  0  0  0  0  0  0  0  0  0  0
    5.7049   -4.4199   -1.6919 H   0  0  0  0  0  0  0  0  0  0  0  0
    4.8982   -5.9833   -1.5264 H   0  0  0  0  0  0  0  0  0  0  0  0
    2.7797   -4.6778   -4.2698 H   0  0  0  0  0  0  0  0  0  0  0  0
    5.5599   -5.8586   -3.7614 H   0  0  0  0  0  0  0  0  0  0  0  0
    4.6414   -5.9658   -5.2630 H   0  0  0  0  0  0  0  0  0  0  0  0
    4.0390   -6.7511   -3.7899 H   0  0  0  0  0  0  0  0  0  0  0  0
    2.8401   -2.8171   -5.7824 H   0  0  0  0  0  0  0  0  0  0  0  0
    4.1845   -3.7391   -6.4817 H   0  0  0  0  0  0  0  0  0  0  0  0
    4.3682   -2.0151   -6.1411 H   0  0  0  0  0  0  0  0  0  0  0  0
    6.4051   -3.5330   -3.4009 H   0  0  0  0  0  0  0  0  0  0  0  0
    6.3998   -2.3597   -4.6992 H   0  0  0  0  0  0  0  0  0  0  0  0
    6.3481   -4.0831   -5.0782 H   0  0  0  0  0  0  0  0  0  0  0  0
  1  2  1  0  0  0  0
  1 20  1  0  0  0  0
  1 21  1  0  0  0  0
  1 22  1  0  0  0  0
  2  3  1  0  0  0  0
  2 11  1  0  0  0  0
  2 23  1  0  0  0  0
  3  4  1  0  0  0  0
  3 24  1  0  0  0  0
  3 25  1  0  0  0  0
  4  5  1  0  0  0  0
  5  6  1  0  0  0  0
  5 26  1  0  0  0  0
  5 27  1  0  0  0  0
  6  7  1  0  0  0  0
  6 11  2  0  0  0  0
  7  8  2  0  0  0  0
  7 28  1  0  0  0  0
  8  9  1  0  0  0  0
  8 17  1  0  0  0  0
  9 10  2  0  0  0  0
  9 12  1  0  0  0  0
 10 11  1  0  0  0  0
 10 29  1  0  0  0  0
 12 13  1  0  0  0  0
 12 14  1  0  0  0  0
 12 15  1  0  0  0  0
 13 30  1  0  0  0  0
 13 31  1  0  0  0  0
 13 32  1  0  0  0  0
 14 33  1  0  0  0  0
 14 34  1  0  0  0  0
 14 35  1  0  0  0  0
 15 16  1  0  0  0  0
 15 17  1  0  0  0  0
 15 36  1  0  0  0  0
 16 37  1  0  0  0  0
 16 38  1  0  0  0  0
 16 39  1  0  0  0  0
 17 18  1  0  0  0  0
 17 19  1  0  0  0  0
 18 40  1  0  0  0  0
 18 41  1  0  0  0  0
 18 42  1  0  0  0  0
 19 43  1  0  0  0  0
 19 44  1  0  0  0  0
 19 45  1  0  0  0  0
M  END
$$$$
