
 OpenBabel07222214433D

 30 30  0  0  0  0  0  0  0  0999 V2000
    0.9635    0.0546   -0.0483 C   0  0  0  0  0  0  0  0  0  0  0  0
    2.4851    0.1146    0.0070 C   0  0  0  0  0  0  0  0  0  0  0  0
    2.9287    1.1783    0.9862 C   0  0  0  0  0  0  0  0  0  0  0  0
    2.1631    1.8896    1.6321 O   0  0  0  0  0  0  0  0  0  0  0  0
    4.2860    1.2528    1.0686 O   0  0  0  0  0  0  0  0  0  0  0  0
    4.7387    2.2552    1.9996 C   0  0  0  0  0  0  0  0  0  0  0  0
    6.2543    2.2626    2.0058 C   0  0  0  0  0  0  0  0  0  0  0  0
    6.8462    3.2993    2.9687 C   0  0  0  0  0  0  0  0  0  0  0  0
    8.3607    3.3252    2.9602 C   0  0  0  0  0  0  0  0  0  0  0  0
    9.0664    3.8827    4.0354 C   0  0  0  0  0  0  0  0  0  0  0  0
   10.4543    4.0406    3.9604 C   0  0  0  0  0  0  0  0  0  0  0  0
   11.1580    3.5765    2.8495 C   0  0  0  0  0  0  0  0  0  0  0  0
   10.4741    2.9947    1.7918 C   0  0  0  0  0  0  0  0  0  0  0  0
    9.0896    2.8855    1.8441 C   0  0  0  0  0  0  0  0  0  0  0  0
    0.6195   -0.7106   -0.7497 H   0  0  0  0  0  0  0  0  0  0  0  0
    0.5490    1.0189   -0.3634 H   0  0  0  0  0  0  0  0  0  0  0  0
    0.5488   -0.1756    0.9396 H   0  0  0  0  0  0  0  0  0  0  0  0
    2.8751    0.3484   -0.9894 H   0  0  0  0  0  0  0  0  0  0  0  0
    2.8742   -0.8587    0.3249 H   0  0  0  0  0  0  0  0  0  0  0  0
    4.3643    2.0245    3.0022 H   0  0  0  0  0  0  0  0  0  0  0  0
    4.3749    3.2386    1.6784 H   0  0  0  0  0  0  0  0  0  0  0  0
    6.5706    2.4670    0.9765 H   0  0  0  0  0  0  0  0  0  0  0  0
    6.6352    1.2636    2.2534 H   0  0  0  0  0  0  0  0  0  0  0  0
    6.4852    3.1016    3.9866 H   0  0  0  0  0  0  0  0  0  0  0  0
    6.4954    4.3022    2.6904 H   0  0  0  0  0  0  0  0  0  0  0  0
    8.5461    4.2083    4.9342 H   0  0  0  0  0  0  0  0  0  0  0  0
   10.9899    4.5397    4.7635 H   0  0  0  0  0  0  0  0  0  0  0  0
   12.2386    3.6682    2.8039 H   0  0  0  0  0  0  0  0  0  0  0  0
   11.0017    2.6410    0.9111 H   0  0  0  0  0  0  0  0  0  0  0  0
    8.5989    2.4482    0.9813 H   0  0  0  0  0  0  0  0  0  0  0  0
  1  2  1  0  0  0  0
  1 15  1  0  0  0  0
  1 16  1  0  0  0  0
  1 17  1  0  0  0  0
  2  3  1  0  0  0  0
  2 18  1  0  0  0  0
  2 19  1  0  0  0  0
  3  4  2  0  0  0  0
  3  5  1  0  0  0  0
  5  6  1  0  0  0  0
  6  7  1  0  0  0  0
  6 20  1  0  0  0  0
  6 21  1  0  0  0  0
  7  8  1  0  0  0  0
  7 22  1  0  0  0  0
  7 23  1  0  0  0  0
  8  9  1  0  0  0  0
  8 24  1  0  0  0  0
  8 25  1  0  0  0  0
  9 10  1  0  0  0  0
  9 14  2  0  0  0  0
 10 11  2  0  0  0  0
 10 26  1  0  0  0  0
 11 12  1  0  0  0  0
 11 27  1  0  0  0  0
 12 13  2  0  0  0  0
 12 28  1  0  0  0  0
 13 14  1  0  0  0  0
 13 29  1  0  0  0  0
 14 30  1  0  0  0  0
M  END
$$$$
