
 OpenBabel07202215583D

 14 15  0  0  0  0  0  0  0  0999 V2000
   -1.7206    0.8466   -0.0075 S   0  0  0  0  0  0  0  0  0  0  0  0
   -2.0131   -0.8399   -0.0160 C   0  0  0  0  0  0  0  0  0  0  0  0
   -0.9558   -1.6188   -0.0038 N   0  0  0  0  0  0  0  0  0  0  0  0
    0.1898   -0.8389    0.0018 C   0  0  0  0  0  0  0  0  0  0  0  0
    1.5153   -1.3190    0.0076 C   0  0  0  0  0  0  0  0  0  0  0  0
    2.5833   -0.4159    0.0019 C   0  0  0  0  0  0  0  0  0  0  0  0
    2.3468    0.9552   -0.0060 C   0  0  0  0  0  0  0  0  0  0  0  0
    1.0418    1.4582   -0.0060 C   0  0  0  0  0  0  0  0  0  0  0  0
   -0.0237    0.5424   -0.0031 C   0  0  0  0  0  0  0  0  0  0  0  0
   -3.0192   -1.2375   -0.0308 H   0  0  0  0  0  0  0  0  0  0  0  0
    1.6944   -2.3895    0.0125 H   0  0  0  0  0  0  0  0  0  0  0  0
    3.6038   -0.7918    0.0020 H   0  0  0  0  0  0  0  0  0  0  0  0
    3.1870    1.6465   -0.0131 H   0  0  0  0  0  0  0  0  0  0  0  0
    0.8589    2.5284   -0.0119 H   0  0  0  0  0  0  0  0  0  0  0  0
  1  2  1  0  0  0  0
  1  9  1  0  0  0  0
  2  3  2  0  0  0  0
  2 10  1  0  0  0  0
  3  4  1  0  0  0  0
  4  5  1  0  0  0  0
  4  9  2  0  0  0  0
  5  6  2  0  0  0  0
  5 11  1  0  0  0  0
  6  7  1  0  0  0  0
  6 12  1  0  0  0  0
  7  8  2  0  0  0  0
  7 13  1  0  0  0  0
  8  9  1  0  0  0  0
  8 14  1  0  0  0  0
M  END
$$$$
