
 OpenBabel07202215583D

 29 29  0  0  1  0  0  0  0  0999 V2000
    0.9132    0.1284    0.1041 C   0  0  0  0  0  0  0  0  0  0  0  0
    2.4471    0.1229    0.0370 C   0  0  2  0  0  0  0  0  0  0  0  0
    2.9570    1.1366   -0.9973 C   0  0  0  0  0  0  0  0  0  0  0  0
    2.5924    0.6983   -2.4107 C   0  0  0  0  0  0  0  0  0  0  0  0
    3.1104   -0.6088   -2.6588 O   0  0  0  0  0  0  0  0  0  0  0  0
    2.5703   -1.5945   -1.7686 C   0  0  2  0  0  0  0  0  0  0  0  0
    2.9759   -1.2667   -0.3356 C   0  0  0  0  0  0  0  0  0  0  0  0
    3.0435   -2.9500   -2.1883 C   0  0  0  0  0  0  0  0  0  0  0  0
    2.7445   -3.5071   -3.3819 C   0  0  0  0  0  0  0  0  0  0  0  0
    1.9402   -2.7890   -4.4314 C   0  0  0  0  0  0  0  0  0  0  0  0
    3.2155   -4.8868   -3.7266 C   0  0  0  0  0  0  0  0  0  0  0  0
    0.5457    1.1103    0.4121 H   0  0  0  0  0  0  0  0  0  0  0  0
    0.5538   -0.6238    0.8124 H   0  0  0  0  0  0  0  0  0  0  0  0
    0.4406   -0.0927   -0.8581 H   0  0  0  0  0  0  0  0  0  0  0  0
    2.8355    0.3902    1.0263 H   0  0  0  0  0  0  0  0  0  0  0  0
    4.0520    1.1853   -0.9254 H   0  0  0  0  0  0  0  0  0  0  0  0
    2.5698    2.1384   -0.7872 H   0  0  0  0  0  0  0  0  0  0  0  0
    3.0287    1.3832   -3.1444 H   0  0  0  0  0  0  0  0  0  0  0  0
    1.5090    0.7090   -2.5795 H   0  0  0  0  0  0  0  0  0  0  0  0
    1.4768   -1.6073   -1.8511 H   0  0  0  0  0  0  0  0  0  0  0  0
    4.0726   -1.2621   -0.2597 H   0  0  0  0  0  0  0  0  0  0  0  0
    2.6045   -2.0256    0.3625 H   0  0  0  0  0  0  0  0  0  0  0  0
    3.6133   -3.5208   -1.4609 H   0  0  0  0  0  0  0  0  0  0  0  0
    1.5801   -1.8064   -4.1135 H   0  0  0  0  0  0  0  0  0  0  0  0
    1.0482   -3.3653   -4.6902 H   0  0  0  0  0  0  0  0  0  0  0  0
    2.5480   -2.6275   -5.3258 H   0  0  0  0  0  0  0  0  0  0  0  0
    3.7728   -5.3496   -2.9044 H   0  0  0  0  0  0  0  0  0  0  0  0
    3.8757   -4.8530   -4.5983 H   0  0  0  0  0  0  0  0  0  0  0  0
    2.3621   -5.5342   -3.9516 H   0  0  0  0  0  0  0  0  0  0  0  0
  1  2  1  0  0  0  0
  1 12  1  0  0  0  0
  1 13  1  0  0  0  0
  1 14  1  0  0  0  0
  2  3  1  0  0  0  0
  2  7  1  0  0  0  0
  2 15  1  1  0  0  0
  3  4  1  0  0  0  0
  3 16  1  0  0  0  0
  3 17  1  0  0  0  0
  4  5  1  0  0  0  0
  4 18  1  0  0  0  0
  4 19  1  0  0  0  0
  5  6  1  0  0  0  0
  6  7  1  0  0  0  0
  6  8  1  0  0  0  0
  6 20  1  6  0  0  0
  7 21  1  0  0  0  0
  7 22  1  0  0  0  0
  8  9  2  0  0  0  0
  8 23  1  0  0  0  0
  9 10  1  0  0  0  0
  9 11  1  0  0  0  0
 10 24  1  0  0  0  0
 10 25  1  0  0  0  0
 10 26  1  0  0  0  0
 11 27  1  0  0  0  0
 11 28  1  0  0  0  0
 11 29  1  0  0  0  0
M  END
$$$$
