
 OpenBabel07222214433D

  7  6  0  0  0  0  0  0  0  0999 V2000
    0.9912    0.0097    0.0696 S   0  0  0  0  0  0  0  0  0  0  0  0
    2.7952   -0.0550    0.0512 C   0  0  0  0  0  0  0  0  0  0  0  0
    3.4986    1.1774    1.1651 S   0  0  0  0  0  0  0  0  0  0  0  0
    0.7975   -1.0236   -0.7625 H   0  0  0  0  0  0  0  0  0  0  0  0
    3.1498    0.1340   -0.9658 H   0  0  0  0  0  0  0  0  0  0  0  0
    3.1279   -1.0504    0.3555 H   0  0  0  0  0  0  0  0  0  0  0  0
    2.8938    2.2341    0.6046 H   0  0  0  0  0  0  0  0  0  0  0  0
  1  2  1  0  0  0  0
  1  4  1  0  0  0  0
  2  3  1  0  0  0  0
  2  5  1  0  0  0  0
  2  6  1  0  0  0  0
  3  7  1  0  0  0  0
M  END
$$$$
