
 OpenBabel07202215583D

 26 26  0  0  0  0  0  0  0  0999 V2000
    0.8648   -0.0781   -0.1374 C   0  0  0  0  0  0  0  0  0  0  0  0
    2.3784   -0.2391   -0.0938 C   0  0  0  0  0  0  0  0  0  0  0  0
    2.8923   -0.2873    1.3580 C   0  0  0  0  0  0  0  0  0  0  0  0
    2.4408   -1.5526    2.0959 C   0  0  0  0  0  0  0  0  0  0  0  0
    4.3871   -0.0786    1.3991 C   0  0  0  0  0  0  0  0  0  0  0  0
    5.1130   -1.2418    1.3843 N   0  0  0  0  0  0  0  0  0  0  0  0
    6.4532   -1.1343    1.4075 C   0  0  0  0  0  0  0  0  0  0  0  0
    7.0765    0.0927    1.4277 C   0  0  0  0  0  0  0  0  0  0  0  0
    6.3826    1.2509    1.4207 N   0  0  0  0  0  0  0  0  0  0  0  0
    5.0246    1.1778    1.4026 C   0  0  0  0  0  0  0  0  0  0  0  0
    4.4951    2.4286    1.3688 O   0  0  0  0  0  0  0  0  0  0  0  0
    3.1050    2.6701    1.4474 C   0  0  0  0  0  0  0  0  0  0  0  0
    0.5180    0.0353   -1.1676 H   0  0  0  0  0  0  0  0  0  0  0  0
    0.5493    0.8076    0.4257 H   0  0  0  0  0  0  0  0  0  0  0  0
    0.3653   -0.9496    0.2925 H   0  0  0  0  0  0  0  0  0  0  0  0
    2.8275    0.5993   -0.6433 H   0  0  0  0  0  0  0  0  0  0  0  0
    2.6822   -1.1360   -0.6452 H   0  0  0  0  0  0  0  0  0  0  0  0
    2.4143    0.4876    1.9488 H   0  0  0  0  0  0  0  0  0  0  0  0
    2.7544   -2.4656    1.5829 H   0  0  0  0  0  0  0  0  0  0  0  0
    1.3503   -1.5687    2.1907 H   0  0  0  0  0  0  0  0  0  0  0  0
    2.8464   -1.5643    3.1140 H   0  0  0  0  0  0  0  0  0  0  0  0
    7.0114   -2.0624    1.4110 H   0  0  0  0  0  0  0  0  0  0  0  0
    8.1555    0.1785    1.4479 H   0  0  0  0  0  0  0  0  0  0  0  0
    2.9225    3.7447    1.3730 H   0  0  0  0  0  0  0  0  0  0  0  0
    2.6985    2.3538    2.4124 H   0  0  0  0  0  0  0  0  0  0  0  0
    2.5721    2.2357    0.6030 H   0  0  0  0  0  0  0  0  0  0  0  0
  1  2  1  0  0  0  0
  1 13  1  0  0  0  0
  1 14  1  0  0  0  0
  1 15  1  0  0  0  0
  2  3  1  0  0  0  0
  2 16  1  0  0  0  0
  2 17  1  0  0  0  0
  3  4  1  0  0  0  0
  3  5  1  0  0  0  0
  3 18  1  0  0  0  0
  4 19  1  0  0  0  0
  4 20  1  0  0  0  0
  4 21  1  0  0  0  0
  5  6  2  0  0  0  0
  5 10  1  0  0  0  0
  6  7  1  0  0  0  0
  7  8  2  0  0  0  0
  7 22  1  0  0  0  0
  8  9  1  0  0  0  0
  8 23  1  0  0  0  0
  9 10  2  0  0  0  0
 10 11  1  0  0  0  0
 11 12  1  0  0  0  0
 12 24  1  0  0  0  0
 12 25  1  0  0  0  0
 12 26  1  0  0  0  0
M  END
$$$$
