
 OpenBabel07122215493D

 26 26  0  0  0  0  0  0  0  0999 V2000
    1.0275   -0.0168   -0.0856 C   0  0  0  0  0  0  0  0  0  0  0  0
    2.5282   -0.0131   -0.1513 C   0  0  0  0  0  0  0  0  0  0  0  0
    3.1684   -0.0852   -1.3335 C   0  0  0  0  0  0  0  0  0  0  0  0
    3.2818    0.0571    1.1716 C   0  0  0  0  0  0  0  0  0  0  0  0
    4.2907   -1.0969    1.2875 C   0  0  0  0  0  0  0  0  0  0  0  0
    5.0677   -1.0597    2.5978 C   0  0  0  0  0  0  0  0  0  0  0  0
    5.5098    0.3169    3.0126 C   0  0  0  0  0  0  0  0  0  0  0  0
    5.0176    1.4320    2.4412 C   0  0  0  0  0  0  0  0  0  0  0  0
    3.9869    1.4194    1.3461 C   0  0  0  0  0  0  0  0  0  0  0  0
    6.5348    0.3652    4.1066 C   0  0  0  0  0  0  0  0  0  0  0  0
    0.5802   -0.0807   -1.0838 H   0  0  0  0  0  0  0  0  0  0  0  0
    0.6611    0.9013    0.3842 H   0  0  0  0  0  0  0  0  0  0  0  0
    0.6690   -0.8755    0.4913 H   0  0  0  0  0  0  0  0  0  0  0  0
    2.6338   -0.1511   -2.2734 H   0  0  0  0  0  0  0  0  0  0  0  0
    4.2527   -0.0775   -1.3896 H   0  0  0  0  0  0  0  0  0  0  0  0
    2.5618   -0.0566    1.9965 H   0  0  0  0  0  0  0  0  0  0  0  0
    5.0157   -1.0571    0.4649 H   0  0  0  0  0  0  0  0  0  0  0  0
    3.7758   -2.0621    1.2032 H   0  0  0  0  0  0  0  0  0  0  0  0
    5.9445   -1.7092    2.4836 H   0  0  0  0  0  0  0  0  0  0  0  0
    4.4525   -1.4797    3.4015 H   0  0  0  0  0  0  0  0  0  0  0  0
    5.3661    2.4106    2.7638 H   0  0  0  0  0  0  0  0  0  0  0  0
    4.4909    1.7198    0.4187 H   0  0  0  0  0  0  0  0  0  0  0  0
    3.2323    2.1894    1.5523 H   0  0  0  0  0  0  0  0  0  0  0  0
    6.8329   -0.6466    4.4042 H   0  0  0  0  0  0  0  0  0  0  0  0
    6.1306    0.8610    4.9936 H   0  0  0  0  0  0  0  0  0  0  0  0
    7.4390    0.8850    3.7747 H   0  0  0  0  0  0  0  0  0  0  0  0
  1  2  1  0  0  0  0
  1 11  1  0  0  0  0
  1 12  1  0  0  0  0
  1 13  1  0  0  0  0
  2  3  2  0  0  0  0
  2  4  1  0  0  0  0
  3 14  1  0  0  0  0
  3 15  1  0  0  0  0
  4  5  1  0  0  0  0
  4  9  1  0  0  0  0
  4 16  1  0  0  0  0
  5  6  1  0  0  0  0
  5 17  1  0  0  0  0
  5 18  1  0  0  0  0
  6  7  1  0  0  0  0
  6 19  1  0  0  0  0
  6 20  1  0  0  0  0
  7  8  2  0  0  0  0
  7 10  1  0  0  0  0
  8  9  1  0  0  0  0
  8 21  1  0  0  0  0
  9 22  1  0  0  0  0
  9 23  1  0  0  0  0
 10 24  1  0  0  0  0
 10 25  1  0  0  0  0
 10 26  1  0  0  0  0
M  END
$$$$
