
 OpenBabel07122215493D

 34 34  0  0  0  0  0  0  0  0999 V2000
    0.9775   -0.0121    0.0556 C   0  0  0  0  0  0  0  0  0  0  0  0
    2.4832   -0.0633    0.0861 C   0  0  0  0  0  0  0  0  0  0  0  0
    3.0963   -0.4991    1.0600 O   0  0  0  0  0  0  0  0  0  0  0  0
    3.1919    0.4622   -1.1137 C   0  0  0  0  0  0  0  0  0  0  0  0
    4.5296    0.5800   -1.1421 C   0  0  0  0  0  0  0  0  0  0  0  0
    5.2936    1.1705   -2.2495 C   0  0  0  0  0  0  0  0  0  0  0  0
    4.9643    2.3714   -2.7911 C   0  0  0  0  0  0  0  0  0  0  0  0
    3.8681    3.2867   -2.2993 C   0  0  0  0  0  0  0  0  0  0  0  0
    5.7019    2.9743   -3.9699 C   0  0  0  0  0  0  0  0  0  0  0  0
    6.6541    2.0239   -4.6778 C   0  0  0  0  0  0  0  0  0  0  0  0
    7.4556    1.2449   -3.6506 C   0  0  0  0  0  0  0  0  0  0  0  0
    6.5455    0.3842   -2.7262 C   0  0  0  0  0  0  0  0  0  0  0  0
    7.4409   -0.0642   -1.5482 C   0  0  0  0  0  0  0  0  0  0  0  0
    6.1006   -0.8715   -3.5048 C   0  0  0  0  0  0  0  0  0  0  0  0
    0.5802   -0.4596    0.9718 H   0  0  0  0  0  0  0  0  0  0  0  0
    0.6012   -0.5826   -0.7976 H   0  0  0  0  0  0  0  0  0  0  0  0
    0.6322    1.0243   -0.0003 H   0  0  0  0  0  0  0  0  0  0  0  0
    2.5701    0.8117   -1.9289 H   0  0  0  0  0  0  0  0  0  0  0  0
    5.1000    0.2187   -0.2881 H   0  0  0  0  0  0  0  0  0  0  0  0
    3.3281    2.9238   -1.4252 H   0  0  0  0  0  0  0  0  0  0  0  0
    3.1344    3.4505   -3.0951 H   0  0  0  0  0  0  0  0  0  0  0  0
    4.2963    4.2494   -2.0049 H   0  0  0  0  0  0  0  0  0  0  0  0
    6.2649    3.8451   -3.6106 H   0  0  0  0  0  0  0  0  0  0  0  0
    4.9790    3.3425   -4.7082 H   0  0  0  0  0  0  0  0  0  0  0  0
    7.3264    2.5950   -5.3288 H   0  0  0  0  0  0  0  0  0  0  0  0
    6.0946    1.3439   -5.3301 H   0  0  0  0  0  0  0  0  0  0  0  0
    8.0356    1.9601   -3.0501 H   0  0  0  0  0  0  0  0  0  0  0  0
    8.1906    0.6134   -4.1661 H   0  0  0  0  0  0  0  0  0  0  0  0
    7.7749    0.7972   -0.9579 H   0  0  0  0  0  0  0  0  0  0  0  0
    8.3337   -0.5883   -1.9089 H   0  0  0  0  0  0  0  0  0  0  0  0
    6.9259   -0.7568   -0.8755 H   0  0  0  0  0  0  0  0  0  0  0  0
    5.4839   -0.6158   -4.3729 H   0  0  0  0  0  0  0  0  0  0  0  0
    5.5172   -1.5507   -2.8744 H   0  0  0  0  0  0  0  0  0  0  0  0
    6.9688   -1.4321   -3.8722 H   0  0  0  0  0  0  0  0  0  0  0  0
  1  2  1  0  0  0  0
  1 15  1  0  0  0  0
  1 16  1  0  0  0  0
  1 17  1  0  0  0  0
  2  3  2  0  0  0  0
  2  4  1  0  0  0  0
  4  5  2  0  0  0  0
  4 18  1  0  0  0  0
  5  6  1  0  0  0  0
  5 19  1  0  0  0  0
  6  7  2  0  0  0  0
  6 12  1  0  0  0  0
  7  8  1  0  0  0  0
  7  9  1  0  0  0  0
  8 20  1  0  0  0  0
  8 21  1  0  0  0  0
  8 22  1  0  0  0  0
  9 10  1  0  0  0  0
  9 23  1  0  0  0  0
  9 24  1  0  0  0  0
 10 11  1  0  0  0  0
 10 25  1  0  0  0  0
 10 26  1  0  0  0  0
 11 12  1  0  0  0  0
 11 27  1  0  0  0  0
 11 28  1  0  0  0  0
 12 13  1  0  0  0  0
 12 14  1  0  0  0  0
 13 29  1  0  0  0  0
 13 30  1  0  0  0  0
 13 31  1  0  0  0  0
 14 32  1  0  0  0  0
 14 33  1  0  0  0  0
 14 34  1  0  0  0  0
M  END
$$$$
