
 OpenBabel07122215493D

 30 29  0  0  0  0  0  0  0  0999 V2000
    0.9824    0.0618   -0.0657 C   0  0  0  0  0  0  0  0  0  0  0  0
    2.4993    0.0715   -0.0576 C   0  0  0  0  0  0  0  0  0  0  0  0
    3.0193    1.2259    0.7891 C   0  0  0  0  0  0  0  0  0  0  0  0
    4.5393    1.2405    0.8084 C   0  0  0  0  0  0  0  0  0  0  0  0
    5.0469    2.3940    1.6655 C   0  0  0  0  0  0  0  0  0  0  0  0
    6.5658    2.3988    1.6629 C   0  0  0  0  0  0  0  0  0  0  0  0
    7.1246    3.5541    2.4835 C   0  0  0  0  0  0  0  0  0  0  0  0
    8.6539    3.5720    2.4681 C   0  0  0  0  0  0  0  0  0  0  0  0
    9.2266    3.7445    1.0663 C   0  0  0  0  0  0  0  0  0  0  0  0
    9.1080    4.6489    3.2862 O   0  0  0  0  0  0  0  0  0  0  0  0
    0.6110   -0.7684   -0.6722 H   0  0  0  0  0  0  0  0  0  0  0  0
    0.5913    0.9956   -0.4823 H   0  0  0  0  0  0  0  0  0  0  0  0
    0.5905   -0.0508    0.9502 H   0  0  0  0  0  0  0  0  0  0  0  0
    2.8718    0.1627   -1.0846 H   0  0  0  0  0  0  0  0  0  0  0  0
    2.8704   -0.8805    0.3398 H   0  0  0  0  0  0  0  0  0  0  0  0
    2.6412    1.1359    1.8146 H   0  0  0  0  0  0  0  0  0  0  0  0
    2.6485    2.1775    0.3889 H   0  0  0  0  0  0  0  0  0  0  0  0
    4.9228    1.3402   -0.2151 H   0  0  0  0  0  0  0  0  0  0  0  0
    4.9191    0.2899    1.2029 H   0  0  0  0  0  0  0  0  0  0  0  0
    4.6715    2.2984    2.6908 H   0  0  0  0  0  0  0  0  0  0  0  0
    4.6733    3.3448    1.2658 H   0  0  0  0  0  0  0  0  0  0  0  0
    6.8989    2.4741    0.6227 H   0  0  0  0  0  0  0  0  0  0  0  0
    6.9449    1.4483    2.0578 H   0  0  0  0  0  0  0  0  0  0  0  0
    6.7729    3.4818    3.5212 H   0  0  0  0  0  0  0  0  0  0  0  0
    6.7357    4.5094    2.1078 H   0  0  0  0  0  0  0  0  0  0  0  0
    9.0370    2.6454    2.9080 H   0  0  0  0  0  0  0  0  0  0  0  0
    8.8583    4.6687    0.6078 H   0  0  0  0  0  0  0  0  0  0  0  0
    8.9692    2.9066    0.4120 H   0  0  0  0  0  0  0  0  0  0  0  0
   10.3173    3.8143    1.1025 H   0  0  0  0  0  0  0  0  0  0  0  0
    8.7712    5.4738    2.9057 H   0  0  0  0  0  0  0  0  0  0  0  0
  1  2  1  0  0  0  0
  1 11  1  0  0  0  0
  1 12  1  0  0  0  0
  1 13  1  0  0  0  0
  2  3  1  0  0  0  0
  2 14  1  0  0  0  0
  2 15  1  0  0  0  0
  3  4  1  0  0  0  0
  3 16  1  0  0  0  0
  3 17  1  0  0  0  0
  4  5  1  0  0  0  0
  4 18  1  0  0  0  0
  4 19  1  0  0  0  0
  5  6  1  0  0  0  0
  5 20  1  0  0  0  0
  5 21  1  0  0  0  0
  6  7  1  0  0  0  0
  6 22  1  0  0  0  0
  6 23  1  0  0  0  0
  7  8  1  0  0  0  0
  7 24  1  0  0  0  0
  7 25  1  0  0  0  0
  8  9  1  0  0  0  0
  8 10  1  0  0  0  0
  8 26  1  0  0  0  0
  9 27  1  0  0  0  0
  9 28  1  0  0  0  0
  9 29  1  0  0  0  0
 10 30  1  0  0  0  0
M  END
$$$$
