
 OpenBabel07122215493D

 37 37  0  0  0  0  0  0  0  0999 V2000
    1.0581   -0.0217    0.0488 C   0  0  0  0  0  0  0  0  0  0  0  0
    2.5849   -0.0396    0.0712 C   0  0  0  0  0  0  0  0  0  0  0  0
    3.0791   -1.0469    1.1121 C   0  0  0  0  0  0  0  0  0  0  0  0
    3.0508   -0.4299   -1.2213 O   0  0  0  0  0  0  0  0  0  0  0  0
    3.1139    1.3708    0.3674 C   0  0  0  0  0  0  0  0  0  0  0  0
    4.6393    1.4232    0.3724 C   0  0  0  0  0  0  0  0  0  0  0  0
    5.1345    2.8263    0.6802 C   0  0  0  0  0  0  0  0  0  0  0  0
    6.6366    2.8371    0.6690 C   0  0  0  0  0  0  0  0  0  0  0  0
    7.3041    2.9628   -0.4916 C   0  0  0  0  0  0  0  0  0  0  0  0
    8.7971    2.9222   -0.5910 C   0  0  0  0  0  0  0  0  0  0  0  0
    9.4625    2.3743    0.6768 C   0  0  0  0  0  0  0  0  0  0  0  0
    8.8258    2.9766    1.9308 C   0  0  0  0  0  0  0  0  0  0  0  0
    7.3286    2.6632    1.9995 C   0  0  0  0  0  0  0  0  0  0  0  0
    9.3502    0.8619    0.7308 C   0  0  0  0  0  0  0  0  0  0  0  0
    9.8002    0.1879    1.6578 O   0  0  0  0  0  0  0  0  0  0  0  0
    0.6629   -1.0141   -0.1928 H   0  0  0  0  0  0  0  0  0  0  0  0
    0.6847    0.6621   -0.7215 H   0  0  0  0  0  0  0  0  0  0  0  0
    0.6526    0.2886    1.0173 H   0  0  0  0  0  0  0  0  0  0  0  0
    2.6999   -2.0506    0.8996 H   0  0  0  0  0  0  0  0  0  0  0  0
    2.7631   -0.7532    2.1188 H   0  0  0  0  0  0  0  0  0  0  0  0
    4.1695   -1.1415    1.1050 H   0  0  0  0  0  0  0  0  0  0  0  0
    2.7323   -1.3306   -1.4006 H   0  0  0  0  0  0  0  0  0  0  0  0
    2.7323    1.7193    1.3353 H   0  0  0  0  0  0  0  0  0  0  0  0
    2.7476    2.0707   -0.3961 H   0  0  0  0  0  0  0  0  0  0  0  0
    5.0225    1.0887   -0.6005 H   0  0  0  0  0  0  0  0  0  0  0  0
    5.0462    0.7421    1.1269 H   0  0  0  0  0  0  0  0  0  0  0  0
    4.7586    3.1570    1.6553 H   0  0  0  0  0  0  0  0  0  0  0  0
    4.7454    3.5334   -0.0616 H   0  0  0  0  0  0  0  0  0  0  0  0
    6.7503    3.0656   -1.4238 H   0  0  0  0  0  0  0  0  0  0  0  0
    9.1410    3.9458   -0.7817 H   0  0  0  0  0  0  0  0  0  0  0  0
    9.0810    2.3186   -1.4612 H   0  0  0  0  0  0  0  0  0  0  0  0
   10.5315    2.6137    0.6404 H   0  0  0  0  0  0  0  0  0  0  0  0
    8.9663    4.0653    1.9237 H   0  0  0  0  0  0  0  0  0  0  0  0
    9.3169    2.6003    2.8359 H   0  0  0  0  0  0  0  0  0  0  0  0
    6.8683    3.3103    2.7543 H   0  0  0  0  0  0  0  0  0  0  0  0
    7.1859    1.6289    2.3399 H   0  0  0  0  0  0  0  0  0  0  0  0
    8.8106    0.3740   -0.0981 H   0  0  0  0  0  0  0  0  0  0  0  0
  1  2  1  0  0  0  0
  1 16  1  0  0  0  0
  1 17  1  0  0  0  0
  1 18  1  0  0  0  0
  2  3  1  0  0  0  0
  2  4  1  0  0  0  0
  2  5  1  0  0  0  0
  3 19  1  0  0  0  0
  3 20  1  0  0  0  0
  3 21  1  0  0  0  0
  4 22  1  0  0  0  0
  5  6  1  0  0  0  0
  5 23  1  0  0  0  0
  5 24  1  0  0  0  0
  6  7  1  0  0  0  0
  6 25  1  0  0  0  0
  6 26  1  0  0  0  0
  7  8  1  0  0  0  0
  7 27  1  0  0  0  0
  7 28  1  0  0  0  0
  8  9  2  0  0  0  0
  8 13  1  0  0  0  0
  9 10  1  0  0  0  0
  9 29  1  0  0  0  0
 10 11  1  0  0  0  0
 10 30  1  0  0  0  0
 10 31  1  0  0  0  0
 11 12  1  0  0  0  0
 11 14  1  0  0  0  0
 11 32  1  0  0  0  0
 12 13  1  0  0  0  0
 12 33  1  0  0  0  0
 12 34  1  0  0  0  0
 13 35  1  0  0  0  0
 13 36  1  0  0  0  0
 14 15  2  0  0  0  0
 14 37  1  0  0  0  0
M  END
$$$$
