
 OpenBabel07122215493D

 22 21  0  0  0  0  0  0  0  0999 V2000
    1.0647   -0.0312   -0.0611 C   0  0  0  0  0  0  0  0  0  0  0  0
    2.5844   -0.0334   -0.0594 C   0  0  0  0  0  0  0  0  0  0  0  0
    3.1094   -1.1423    0.8402 C   0  0  0  0  0  0  0  0  0  0  0  0
    4.6346   -1.1844    0.8744 C   0  0  0  0  0  0  0  0  0  0  0  0
    5.1001   -2.3053    1.7837 C   0  0  0  0  0  0  0  0  0  0  0  0
    4.2976   -3.0330    2.3740 O   0  0  0  0  0  0  0  0  0  0  0  0
    6.5962   -2.4916    1.9348 C   0  0  0  0  0  0  0  0  0  0  0  0
    6.8908   -3.6496    2.8743 C   0  0  0  0  0  0  0  0  0  0  0  0
    0.6857    0.7651   -0.7071 H   0  0  0  0  0  0  0  0  0  0  0  0
    0.6745    0.1304    0.9492 H   0  0  0  0  0  0  0  0  0  0  0  0
    0.6745   -0.9866   -0.4276 H   0  0  0  0  0  0  0  0  0  0  0  0
    2.9516    0.9376    0.2912 H   0  0  0  0  0  0  0  0  0  0  0  0
    2.9516   -0.1762   -1.0817 H   0  0  0  0  0  0  0  0  0  0  0  0
    2.7245   -2.1099    0.4921 H   0  0  0  0  0  0  0  0  0  0  0  0
    2.7245   -1.0011    1.8588 H   0  0  0  0  0  0  0  0  0  0  0  0
    5.0317   -0.2362    1.2527 H   0  0  0  0  0  0  0  0  0  0  0  0
    5.0317   -1.3591   -0.1315 H   0  0  0  0  0  0  0  0  0  0  0  0
    7.0293   -1.5683    2.3333 H   0  0  0  0  0  0  0  0  0  0  0  0
    7.0293   -2.6912    0.9493 H   0  0  0  0  0  0  0  0  0  0  0  0
    6.4547   -3.4653    3.8627 H   0  0  0  0  0  0  0  0  0  0  0  0
    7.9666   -3.7971    2.9940 H   0  0  0  0  0  0  0  0  0  0  0  0
    6.4547   -4.5788    2.4901 H   0  0  0  0  0  0  0  0  0  0  0  0
  1  2  1  0  0  0  0
  1  9  1  0  0  0  0
  1 10  1  0  0  0  0
  1 11  1  0  0  0  0
  2  3  1  0  0  0  0
  2 12  1  0  0  0  0
  2 13  1  0  0  0  0
  3  4  1  0  0  0  0
  3 14  1  0  0  0  0
  3 15  1  0  0  0  0
  4  5  1  0  0  0  0
  4 16  1  0  0  0  0
  4 17  1  0  0  0  0
  5  6  2  0  0  0  0
  5  7  1  0  0  0  0
  7  8  1  0  0  0  0
  7 18  1  0  0  0  0
  7 19  1  0  0  0  0
  8 20  1  0  0  0  0
  8 21  1  0  0  0  0
  8 22  1  0  0  0  0
M  END
$$$$
