
 OpenBabel07122215493D

 24 25  0  0  0  0  0  0  0  0999 V2000
    1.0961   -0.0413   -0.1247 C   0  0  0  0  0  0  0  0  0  0  0  0
    2.5985   -0.0700   -0.0636 C   0  0  0  0  0  0  0  0  0  0  0  0
    3.2294   -0.4503    0.9160 O   0  0  0  0  0  0  0  0  0  0  0  0
    3.1541    0.3773   -1.2230 O   0  0  0  0  0  0  0  0  0  0  0  0
    4.5940    0.3727   -1.2319 C   0  0  0  0  0  0  0  0  0  0  0  0
    5.0840    0.9108   -2.5616 C   0  0  0  0  0  0  0  0  0  0  0  0
    5.6455    0.0655   -3.5375 C   0  0  0  0  0  0  0  0  0  0  0  0
    6.0214    0.6195   -4.7495 C   0  0  0  0  0  0  0  0  0  0  0  0
    5.8712    1.9604   -5.0116 C   0  0  0  0  0  0  0  0  0  0  0  0
    5.3449    2.8235   -4.0769 C   0  0  0  0  0  0  0  0  0  0  0  0
    4.9525    2.2912   -2.8430 C   0  0  0  0  0  0  0  0  0  0  0  0
    6.2868    2.3001   -6.2615 O   0  0  0  0  0  0  0  0  0  0  0  0
    6.7900    1.0331   -6.7316 C   0  0  0  0  0  0  0  0  0  0  0  0
    6.5525   -0.0528   -5.8088 O   0  0  0  0  0  0  0  0  0  0  0  0
    0.6918   -0.4161    0.8224 H   0  0  0  0  0  0  0  0  0  0  0  0
    0.7309   -0.6904   -0.9246 H   0  0  0  0  0  0  0  0  0  0  0  0
    0.7345    0.9809   -0.2623 H   0  0  0  0  0  0  0  0  0  0  0  0
    4.9655   -0.6468   -1.0722 H   0  0  0  0  0  0  0  0  0  0  0  0
    4.9762    1.0128   -0.4257 H   0  0  0  0  0  0  0  0  0  0  0  0
    5.7819   -0.9968   -3.3628 H   0  0  0  0  0  0  0  0  0  0  0  0
    5.2299    3.8789   -4.2952 H   0  0  0  0  0  0  0  0  0  0  0  0
    4.5293    2.9560   -2.0923 H   0  0  0  0  0  0  0  0  0  0  0  0
    7.8714    1.1265   -6.8892 H   0  0  0  0  0  0  0  0  0  0  0  0
    6.3198    0.7987   -7.6944 H   0  0  0  0  0  0  0  0  0  0  0  0
  1  2  1  0  0  0  0
  1 15  1  0  0  0  0
  1 16  1  0  0  0  0
  1 17  1  0  0  0  0
  2  3  2  0  0  0  0
  2  4  1  0  0  0  0
  4  5  1  0  0  0  0
  5  6  1  0  0  0  0
  5 18  1  0  0  0  0
  5 19  1  0  0  0  0
  6  7  2  0  0  0  0
  6 11  1  0  0  0  0
  7  8  1  0  0  0  0
  7 20  1  0  0  0  0
  8  9  2  0  0  0  0
  8 14  1  0  0  0  0
  9 10  1  0  0  0  0
  9 12  1  0  0  0  0
 10 11  2  0  0  0  0
 10 21  1  0  0  0  0
 11 22  1  0  0  0  0
 12 13  1  0  0  0  0
 13 14  1  0  0  0  0
 13 23  1  0  0  0  0
 13 24  1  0  0  0  0
M  END
$$$$
