
 OpenBabel07122215493D

 23 22  0  0  0  0  0  0  0  0999 V2000
    0.9626    0.0722    0.0756 C   0  0  0  0  0  0  0  0  0  0  0  0
    2.4898    0.0651    0.0480 C   0  0  0  0  0  0  0  0  0  0  0  0
    2.9729   -0.8409   -1.0874 C   0  0  0  0  0  0  0  0  0  0  0  0
    3.0342    1.4975   -0.0993 C   0  0  0  0  0  0  0  0  0  0  0  0
    4.5600    1.5171   -0.0841 C   0  0  0  0  0  0  0  0  0  0  0  0
    5.0482    2.8572   -0.2073 O   0  0  0  0  0  0  0  0  0  0  0  0
    6.3796    3.1026   -0.2759 C   0  0  0  0  0  0  0  0  0  0  0  0
    7.3490    1.9556   -0.1498 C   0  0  0  0  0  0  0  0  0  0  0  0
    6.7936    4.2515   -0.4269 O   0  0  0  0  0  0  0  0  0  0  0  0
    0.5747   -0.9444    0.2033 H   0  0  0  0  0  0  0  0  0  0  0  0
    0.5553    0.4739   -0.8583 H   0  0  0  0  0  0  0  0  0  0  0  0
    0.5864    0.6817    0.9031 H   0  0  0  0  0  0  0  0  0  0  0  0
    2.8467   -0.3500    1.0000 H   0  0  0  0  0  0  0  0  0  0  0  0
    2.6516   -0.4484   -2.0581 H   0  0  0  0  0  0  0  0  0  0  0  0
    2.5788   -1.8549   -0.9755 H   0  0  0  0  0  0  0  0  0  0  0  0
    4.0629   -0.9301   -1.1021 H   0  0  0  0  0  0  0  0  0  0  0  0
    2.6552    2.1321    0.7125 H   0  0  0  0  0  0  0  0  0  0  0  0
    2.6674    1.9538   -1.0277 H   0  0  0  0  0  0  0  0  0  0  0  0
    4.9438    0.9459   -0.9329 H   0  0  0  0  0  0  0  0  0  0  0  0
    4.9125    1.0930    0.8621 H   0  0  0  0  0  0  0  0  0  0  0  0
    6.8921    0.9740   -0.0354 H   0  0  0  0  0  0  0  0  0  0  0  0
    7.9761    2.1222    0.7303 H   0  0  0  0  0  0  0  0  0  0  0  0
    7.9705    1.9169   -1.0489 H   0  0  0  0  0  0  0  0  0  0  0  0
  1  2  1  0  0  0  0
  1 10  1  0  0  0  0
  1 11  1  0  0  0  0
  1 12  1  0  0  0  0
  2  3  1  0  0  0  0
  2  4  1  0  0  0  0
  2 13  1  0  0  0  0
  3 14  1  0  0  0  0
  3 15  1  0  0  0  0
  3 16  1  0  0  0  0
  4  5  1  0  0  0  0
  4 17  1  0  0  0  0
  4 18  1  0  0  0  0
  5  6  1  0  0  0  0
  5 19  1  0  0  0  0
  5 20  1  0  0  0  0
  6  7  1  0  0  0  0
  7  8  1  0  0  0  0
  7  9  2  0  0  0  0
  8 21  1  0  0  0  0
  8 22  1  0  0  0  0
  8 23  1  0  0  0  0
M  END
$$$$
