
 OpenBabel07122215493D

 18 18  0  0  0  0  0  0  0  0999 V2000
    1.0464    0.0498    0.0001 C   0  0  0  0  0  0  0  0  0  0  0  0
    2.5726   -0.0463   -0.0201 C   0  0  0  0  0  0  0  0  0  0  0  0
    3.0102   -1.2007   -0.8838 C   0  0  0  0  0  0  0  0  0  0  0  0
    2.7001   -2.4788   -0.5812 C   0  0  0  0  0  0  0  0  0  0  0  0
    3.0220   -3.5391   -1.5727 C   0  0  0  0  0  0  0  0  0  0  0  0
    2.6840   -4.7119   -1.4222 O   0  0  0  0  0  0  0  0  0  0  0  0
    3.7555   -3.1251   -2.7769 C   0  0  0  0  0  0  0  0  0  0  0  0
    4.0410   -1.8301   -2.9321 C   0  0  0  0  0  0  0  0  0  0  0  0
    3.6886   -0.8393   -2.0449 O   0  0  0  0  0  0  0  0  0  0  0  0
    2.0468   -2.8653    0.5746 O   0  0  0  0  0  0  0  0  0  0  0  0
    0.7147    0.8244    0.6949 H   0  0  0  0  0  0  0  0  0  0  0  0
    0.5658   -0.8818    0.3174 H   0  0  0  0  0  0  0  0  0  0  0  0
    0.6615    0.2723   -0.9998 H   0  0  0  0  0  0  0  0  0  0  0  0
    2.9590   -0.1877    0.9973 H   0  0  0  0  0  0  0  0  0  0  0  0
    2.9927    0.9029   -0.3743 H   0  0  0  0  0  0  0  0  0  0  0  0
    4.0227   -3.8938   -3.4872 H   0  0  0  0  0  0  0  0  0  0  0  0
    4.5730   -1.4365   -3.7881 H   0  0  0  0  0  0  0  0  0  0  0  0
    1.9506   -2.1054    1.1674 H   0  0  0  0  0  0  0  0  0  0  0  0
  1  2  1  0  0  0  0
  1 11  1  0  0  0  0
  1 12  1  0  0  0  0
  1 13  1  0  0  0  0
  2  3  1  0  0  0  0
  2 14  1  0  0  0  0
  2 15  1  0  0  0  0
  3  4  2  0  0  0  0
  3  9  1  0  0  0  0
  4  5  1  0  0  0  0
  4 10  1  0  0  0  0
  5  6  2  0  0  0  0
  5  7  1  0  0  0  0
  7  8  2  0  0  0  0
  7 16  1  0  0  0  0
  8  9  1  0  0  0  0
  8 17  1  0  0  0  0
 10 18  1  0  0  0  0
M  END
$$$$
