
 OpenBabel07122215493D

 17 17  0  0  0  0  0  0  0  0999 V2000
    0.9911    0.0781   -0.0950 O   0  0  0  0  0  0  0  0  0  0  0  0
    2.2227    0.0935   -0.0970 C   0  0  0  0  0  0  0  0  0  0  0  0
    3.0364    0.8972   -1.0831 C   0  0  0  0  0  0  0  0  0  0  0  0
    4.5209    0.7394   -0.8612 C   0  0  0  0  0  0  0  0  0  0  0  0
    5.1048   -0.5337   -0.7797 C   0  0  0  0  0  0  0  0  0  0  0  0
    6.4407   -0.6726   -0.4074 C   0  0  0  0  0  0  0  0  0  0  0  0
    7.2335    0.4576   -0.2236 C   0  0  0  0  0  0  0  0  0  0  0  0
    6.6827    1.7281   -0.3782 C   0  0  0  0  0  0  0  0  0  0  0  0
    5.3304    1.8701   -0.6891 C   0  0  0  0  0  0  0  0  0  0  0  0
    2.7813   -0.4968    0.6489 H   0  0  0  0  0  0  0  0  0  0  0  0
    2.7486    1.9462   -0.9456 H   0  0  0  0  0  0  0  0  0  0  0  0
    2.7778    0.5932   -2.1021 H   0  0  0  0  0  0  0  0  0  0  0  0
    4.5163   -1.4294   -0.9692 H   0  0  0  0  0  0  0  0  0  0  0  0
    6.8587   -1.6629   -0.2459 H   0  0  0  0  0  0  0  0  0  0  0  0
    8.2827    0.3472    0.0364 H   0  0  0  0  0  0  0  0  0  0  0  0
    7.3011    2.6101   -0.2329 H   0  0  0  0  0  0  0  0  0  0  0  0
    4.9113    2.8703   -0.7796 H   0  0  0  0  0  0  0  0  0  0  0  0
  1  2  2  0  0  0  0
  2  3  1  0  0  0  0
  2 10  1  0  0  0  0
  3  4  1  0  0  0  0
  3 11  1  0  0  0  0
  3 12  1  0  0  0  0
  4  5  1  0  0  0  0
  4  9  2  0  0  0  0
  5  6  2  0  0  0  0
  5 13  1  0  0  0  0
  6  7  1  0  0  0  0
  6 14  1  0  0  0  0
  7  8  2  0  0  0  0
  7 15  1  0  0  0  0
  8  9  1  0  0  0  0
  8 16  1  0  0  0  0
  9 17  1  0  0  0  0
M  END
$$$$
