
 OpenBabel07122215493D

 29 28  0  0  0  0  0  0  0  0999 V2000
    0.9095    0.0107    0.0370 C   0  0  0  0  0  0  0  0  0  0  0  0
    2.4051    0.0132    0.0375 C   0  0  0  0  0  0  0  0  0  0  0  0
    3.1257   -1.3082    0.0450 C   0  0  0  0  0  0  0  0  0  0  0  0
    3.0807    1.1805    0.0306 C   0  0  0  0  0  0  0  0  0  0  0  0
    4.5744    1.2114    0.0306 C   0  0  0  0  0  0  0  0  0  0  0  0
    5.1646    2.6115    0.0243 C   0  0  0  0  0  0  0  0  0  0  0  0
    6.6819    2.6537    0.0276 C   0  0  0  0  0  0  0  0  0  0  0  0
    7.4902    1.3782    0.0295 C   0  0  0  0  0  0  0  0  0  0  0  0
    7.3174    3.8441    0.0165 C   0  0  0  0  0  0  0  0  0  0  0  0
    6.6094    5.1628    0.0033 C   0  0  0  0  0  0  0  0  0  0  0  0
    7.5645    6.2090   -0.0148 O   0  0  0  0  0  0  0  0  0  0  0  0
    0.5083   -1.0065    0.0430 H   0  0  0  0  0  0  0  0  0  0  0  0
    0.5286    0.5148   -0.8571 H   0  0  0  0  0  0  0  0  0  0  0  0
    0.5281    0.5254    0.9249 H   0  0  0  0  0  0  0  0  0  0  0  0
    2.4360   -2.1552    0.0499 H   0  0  0  0  0  0  0  0  0  0  0  0
    3.7594   -1.3963    0.9350 H   0  0  0  0  0  0  0  0  0  0  0  0
    3.7592   -1.4064   -0.8442 H   0  0  0  0  0  0  0  0  0  0  0  0
    2.5423    2.1247    0.0240 H   0  0  0  0  0  0  0  0  0  0  0  0
    4.9275    0.6803   -0.8622 H   0  0  0  0  0  0  0  0  0  0  0  0
    4.9273    0.6892    0.9284 H   0  0  0  0  0  0  0  0  0  0  0  0
    4.7909    3.1526    0.9041 H   0  0  0  0  0  0  0  0  0  0  0  0
    4.7949    3.1413   -0.8642 H   0  0  0  0  0  0  0  0  0  0  0  0
    6.8900    0.4660    0.0341 H   0  0  0  0  0  0  0  0  0  0  0  0
    8.1207    1.3271    0.9224 H   0  0  0  0  0  0  0  0  0  0  0  0
    8.1178    1.3206   -0.8651 H   0  0  0  0  0  0  0  0  0  0  0  0
    8.4047    3.8628   -0.0008 H   0  0  0  0  0  0  0  0  0  0  0  0
    5.9827    5.2829    0.8933 H   0  0  0  0  0  0  0  0  0  0  0  0
    5.9868    5.2594   -0.8912 H   0  0  0  0  0  0  0  0  0  0  0  0
    8.0574    6.1510    0.8200 H   0  0  0  0  0  0  0  0  0  0  0  0
  1  2  1  0  0  0  0
  1 12  1  0  0  0  0
  1 13  1  0  0  0  0
  1 14  1  0  0  0  0
  2  3  1  0  0  0  0
  2  4  2  0  0  0  0
  3 15  1  0  0  0  0
  3 16  1  0  0  0  0
  3 17  1  0  0  0  0
  4  5  1  0  0  0  0
  4 18  1  0  0  0  0
  5  6  1  0  0  0  0
  5 19  1  0  0  0  0
  5 20  1  0  0  0  0
  6  7  1  0  0  0  0
  6 21  1  0  0  0  0
  6 22  1  0  0  0  0
  7  8  1  0  0  0  0
  7  9  2  0  0  0  0
  8 23  1  0  0  0  0
  8 24  1  0  0  0  0
  8 25  1  0  0  0  0
  9 10  1  0  0  0  0
  9 26  1  0  0  0  0
 10 11  1  0  0  0  0
 10 27  1  0  0  0  0
 10 28  1  0  0  0  0
 11 29  1  0  0  0  0
M  END
$$$$
