
 OpenBabel07122215493D

 27 27  0  0  0  0  0  0  0  0999 V2000
    1.0501   -0.0762   -0.0077 C   0  0  0  0  0  0  0  0  0  0  0  0
    2.5661   -0.0746    0.0010 C   0  0  0  0  0  0  0  0  0  0  0  0
    3.0874    0.2489    1.3944 C   0  0  0  0  0  0  0  0  0  0  0  0
    4.6081    0.2510    1.4074 C   0  0  0  0  0  0  0  0  0  0  0  0
    5.1276    0.5890    2.7985 C   0  0  0  0  0  0  0  0  0  0  0  0
    6.6535    0.5657    2.8161 C   0  0  0  0  0  0  0  0  0  0  0  0
    7.2149   -0.5772    3.6329 C   0  0  0  0  0  0  0  0  0  0  0  0
    8.4861   -0.0037    4.2050 C   0  0  0  0  0  0  0  0  0  0  0  0
    8.2358    1.4732    4.1842 C   0  0  0  0  0  0  0  0  0  0  0  0
    8.9309    2.3150    4.7247 O   0  0  0  0  0  0  0  0  0  0  0  0
    7.1297    1.7576    3.4445 O   0  0  0  0  0  0  0  0  0  0  0  0
    0.6766   -0.3087   -1.0082 H   0  0  0  0  0  0  0  0  0  0  0  0
    0.6611    0.9034    0.2881 H   0  0  0  0  0  0  0  0  0  0  0  0
    0.6608   -0.8247    0.6899 H   0  0  0  0  0  0  0  0  0  0  0  0
    2.9376    0.6649   -0.7180 H   0  0  0  0  0  0  0  0  0  0  0  0
    2.9376   -1.0553   -0.3185 H   0  0  0  0  0  0  0  0  0  0  0  0
    2.7129   -0.4898    2.1137 H   0  0  0  0  0  0  0  0  0  0  0  0
    2.7137    1.2297    1.7136 H   0  0  0  0  0  0  0  0  0  0  0  0
    4.9820    0.9893    0.6872 H   0  0  0  0  0  0  0  0  0  0  0  0
    4.9860   -0.7306    1.0967 H   0  0  0  0  0  0  0  0  0  0  0  0
    4.7133   -0.1328    3.5135 H   0  0  0  0  0  0  0  0  0  0  0  0
    4.7508    1.5740    3.1009 H   0  0  0  0  0  0  0  0  0  0  0  0
    7.0641    0.5515    1.7985 H   0  0  0  0  0  0  0  0  0  0  0  0
    7.3864   -1.4723    3.0267 H   0  0  0  0  0  0  0  0  0  0  0  0
    6.5422   -0.8626    4.4505 H   0  0  0  0  0  0  0  0  0  0  0  0
    9.3478   -0.2342    3.5749 H   0  0  0  0  0  0  0  0  0  0  0  0
    8.6474   -0.3493    5.2290 H   0  0  0  0  0  0  0  0  0  0  0  0
  1  2  1  0  0  0  0
  1 12  1  0  0  0  0
  1 13  1  0  0  0  0
  1 14  1  0  0  0  0
  2  3  1  0  0  0  0
  2 15  1  0  0  0  0
  2 16  1  0  0  0  0
  3  4  1  0  0  0  0
  3 17  1  0  0  0  0
  3 18  1  0  0  0  0
  4  5  1  0  0  0  0
  4 19  1  0  0  0  0
  4 20  1  0  0  0  0
  5  6  1  0  0  0  0
  5 21  1  0  0  0  0
  5 22  1  0  0  0  0
  6  7  1  0  0  0  0
  6 11  1  0  0  0  0
  6 23  1  0  0  0  0
  7  8  1  0  0  0  0
  7 24  1  0  0  0  0
  7 25  1  0  0  0  0
  8  9  1  0  0  0  0
  8 26  1  0  0  0  0
  8 27  1  0  0  0  0
  9 10  2  0  0  0  0
  9 11  1  0  0  0  0
M  END
$$$$
