
 OpenBabel07122215493D

 19 19  0  0  0  0  0  0  0  0999 V2000
    1.0082   -0.0447   -0.0661 C   0  0  0  0  0  0  0  0  0  0  0  0
    2.3493   -0.0211   -0.0882 C   0  0  0  0  0  0  0  0  0  0  0  0
    3.1686    0.8802    0.7907 C   0  0  0  0  0  0  0  0  0  0  0  0
    4.6627    0.6972    0.6452 C   0  0  0  0  0  0  0  0  0  0  0  0
    5.2422   -0.5814    0.6386 C   0  0  0  0  0  0  0  0  0  0  0  0
    6.6269   -0.7350    0.6160 C   0  0  0  0  0  0  0  0  0  0  0  0
    7.4490    0.3873    0.5635 C   0  0  0  0  0  0  0  0  0  0  0  0
    6.8884    1.6634    0.5617 C   0  0  0  0  0  0  0  0  0  0  0  0
    5.5029    1.8190    0.6130 C   0  0  0  0  0  0  0  0  0  0  0  0
    0.4615   -0.7231   -0.7112 H   0  0  0  0  0  0  0  0  0  0  0  0
    0.4429    0.6095    0.5879 H   0  0  0  0  0  0  0  0  0  0  0  0
    2.8648   -0.6907   -0.7711 H   0  0  0  0  0  0  0  0  0  0  0  0
    2.9193    0.7045    1.8452 H   0  0  0  0  0  0  0  0  0  0  0  0
    2.9045    1.9204    0.5606 H   0  0  0  0  0  0  0  0  0  0  0  0
    4.6172   -1.4716    0.6544 H   0  0  0  0  0  0  0  0  0  0  0  0
    7.0594   -1.7309    0.6514 H   0  0  0  0  0  0  0  0  0  0  0  0
    8.5277    0.2662    0.5285 H   0  0  0  0  0  0  0  0  0  0  0  0
    7.5307    2.5394    0.5355 H   0  0  0  0  0  0  0  0  0  0  0  0
    5.0824    2.8222    0.6343 H   0  0  0  0  0  0  0  0  0  0  0  0
  1  2  2  0  0  0  0
  1 10  1  0  0  0  0
  1 11  1  0  0  0  0
  2  3  1  0  0  0  0
  2 12  1  0  0  0  0
  3  4  1  0  0  0  0
  3 13  1  0  0  0  0
  3 14  1  0  0  0  0
  4  5  2  0  0  0  0
  4  9  1  0  0  0  0
  5  6  1  0  0  0  0
  5 15  1  0  0  0  0
  6  7  2  0  0  0  0
  6 16  1  0  0  0  0
  7  8  1  0  0  0  0
  7 17  1  0  0  0  0
  8  9  2  0  0  0  0
  8 18  1  0  0  0  0
  9 19  1  0  0  0  0
M  END
$$$$
