
 OpenBabel07122215493D

 31 30  0  0  1  0  0  0  0  0999 V2000
    1.0349    0.0320    0.1413 C   0  0  0  0  0  0  0  0  0  0  0  0
    2.5675    0.0491    0.0827 C   0  0  1  0  0  0  0  0  0  0  0  0
    3.0705    0.4659   -1.3091 C   0  0  0  0  0  0  0  0  0  0  0  0
    2.5925   -0.4882   -2.3847 C   0  0  0  0  0  0  0  0  0  0  0  0
    3.0877   -0.1047   -3.7387 C   0  0  0  0  0  0  0  0  0  0  0  0
    2.7604   -0.8071   -4.8415 C   0  0  0  0  0  0  0  0  0  0  0  0
    1.8947   -2.0375   -4.7920 C   0  0  0  0  0  0  0  0  0  0  0  0
    3.2498   -0.3821   -6.1916 C   0  0  0  0  0  0  0  0  0  0  0  0
    3.1173    1.0006    1.1527 C   0  0  0  0  0  0  0  0  0  0  0  0
    4.6419    1.0203    1.1988 C   0  0  0  0  0  0  0  0  0  0  0  0
    5.0766    1.9082    2.2165 O   0  0  0  0  0  0  0  0  0  0  0  0
    0.6085   -0.6969   -0.5548 H   0  0  0  0  0  0  0  0  0  0  0  0
    0.6244    1.0162   -0.1085 H   0  0  0  0  0  0  0  0  0  0  0  0
    0.6819   -0.2489    1.1376 H   0  0  0  0  0  0  0  0  0  0  0  0
    2.9258   -0.9664    0.2996 H   0  0  0  0  0  0  0  0  0  0  0  0
    4.1655    0.4636   -1.3387 H   0  0  0  0  0  0  0  0  0  0  0  0
    2.7464    1.4900   -1.5335 H   0  0  0  0  0  0  0  0  0  0  0  0
    1.4996   -0.4880   -2.4187 H   0  0  0  0  0  0  0  0  0  0  0  0
    2.9427   -1.4977   -2.1357 H   0  0  0  0  0  0  0  0  0  0  0  0
    3.7111    0.7819   -3.8236 H   0  0  0  0  0  0  0  0  0  0  0  0
    1.5636   -2.2960   -3.7807 H   0  0  0  0  0  0  0  0  0  0  0  0
    2.4453   -2.9033   -5.1691 H   0  0  0  0  0  0  0  0  0  0  0  0
    0.9894   -1.8904   -5.3873 H   0  0  0  0  0  0  0  0  0  0  0  0
    3.8648    0.5234   -6.1384 H   0  0  0  0  0  0  0  0  0  0  0  0
    2.4031   -0.1686   -6.8509 H   0  0  0  0  0  0  0  0  0  0  0  0
    3.8601   -1.1727   -6.6377 H   0  0  0  0  0  0  0  0  0  0  0  0
    2.7349    0.7116    2.1398 H   0  0  0  0  0  0  0  0  0  0  0  0
    2.7434    2.0178    0.9779 H   0  0  0  0  0  0  0  0  0  0  0  0
    5.0810    1.3678    0.2601 H   0  0  0  0  0  0  0  0  0  0  0  0
    5.0349    0.0209    1.4103 H   0  0  0  0  0  0  0  0  0  0  0  0
    4.7710    2.7964    1.9633 H   0  0  0  0  0  0  0  0  0  0  0  0
  1  2  1  0  0  0  0
  1 12  1  0  0  0  0
  1 13  1  0  0  0  0
  1 14  1  0  0  0  0
  2  3  1  0  0  0  0
  2  9  1  0  0  0  0
  2 15  1  1  0  0  0
  3  4  1  0  0  0  0
  3 16  1  0  0  0  0
  3 17  1  0  0  0  0
  4  5  1  0  0  0  0
  4 18  1  0  0  0  0
  4 19  1  0  0  0  0
  5  6  2  0  0  0  0
  5 20  1  0  0  0  0
  6  7  1  0  0  0  0
  6  8  1  0  0  0  0
  7 21  1  0  0  0  0
  7 22  1  0  0  0  0
  7 23  1  0  0  0  0
  8 24  1  0  0  0  0
  8 25  1  0  0  0  0
  8 26  1  0  0  0  0
  9 10  1  0  0  0  0
  9 27  1  0  0  0  0
  9 28  1  0  0  0  0
 10 11  1  0  0  0  0
 10 29  1  0  0  0  0
 10 30  1  0  0  0  0
 11 31  1  0  0  0  0
M  END
$$$$
