
 OpenBabel07122215493D

 26 25  0  0  0  0  0  0  0  0999 V2000
    0.8945    0.0175   -0.0121 C   0  0  0  0  0  0  0  0  0  0  0  0
    2.4130    0.0333   -0.0207 C   0  0  0  0  0  0  0  0  0  0  0  0
    2.9415    1.2934   -0.7081 C   0  0  0  0  0  0  0  0  0  0  0  0
    4.4670    1.3076   -0.7159 C   0  0  0  0  0  0  0  0  0  0  0  0
    5.0440    2.5542   -1.3959 C   0  0  0  0  0  0  0  0  0  0  0  0
    6.5597    2.5086   -1.3710 C   0  0  0  0  0  0  0  0  0  0  0  0
    7.2155    1.5992   -0.8749 O   0  0  0  0  0  0  0  0  0  0  0  0
    7.1044    3.6082   -1.9708 O   0  0  0  0  0  0  0  0  0  0  0  0
    8.5438    3.6028   -1.9679 C   0  0  0  0  0  0  0  0  0  0  0  0
    9.0694    4.8534   -2.6501 C   0  0  0  0  0  0  0  0  0  0  0  0
    0.5242   -0.8862    0.4809 H   0  0  0  0  0  0  0  0  0  0  0  0
    0.5009    0.0366   -1.0333 H   0  0  0  0  0  0  0  0  0  0  0  0
    0.5009    0.8864    0.5246 H   0  0  0  0  0  0  0  0  0  0  0  0
    2.7822   -0.8603   -0.5383 H   0  0  0  0  0  0  0  0  0  0  0  0
    2.7822   -0.0153    1.0108 H   0  0  0  0  0  0  0  0  0  0  0  0
    2.5647    2.1810   -0.1861 H   0  0  0  0  0  0  0  0  0  0  0  0
    2.5647    1.3350   -1.7370 H   0  0  0  0  0  0  0  0  0  0  0  0
    4.8342    0.4091   -1.2282 H   0  0  0  0  0  0  0  0  0  0  0  0
    4.8342    1.2520    0.3170 H   0  0  0  0  0  0  0  0  0  0  0  0
    4.7026    3.4523   -0.8693 H   0  0  0  0  0  0  0  0  0  0  0  0
    4.7026    2.5976   -2.4361 H   0  0  0  0  0  0  0  0  0  0  0  0
    8.9096    2.7198   -2.5053 H   0  0  0  0  0  0  0  0  0  0  0  0
    8.9096    3.5767   -0.9346 H   0  0  0  0  0  0  0  0  0  0  0  0
    8.7177    4.9103   -3.6850 H   0  0  0  0  0  0  0  0  0  0  0  0
   10.1647    4.8612   -2.6544 H   0  0  0  0  0  0  0  0  0  0  0  0
    8.7177    5.7543   -2.1377 H   0  0  0  0  0  0  0  0  0  0  0  0
  1  2  1  0  0  0  0
  1 11  1  0  0  0  0
  1 12  1  0  0  0  0
  1 13  1  0  0  0  0
  2  3  1  0  0  0  0
  2 14  1  0  0  0  0
  2 15  1  0  0  0  0
  3  4  1  0  0  0  0
  3 16  1  0  0  0  0
  3 17  1  0  0  0  0
  4  5  1  0  0  0  0
  4 18  1  0  0  0  0
  4 19  1  0  0  0  0
  5  6  1  0  0  0  0
  5 20  1  0  0  0  0
  5 21  1  0  0  0  0
  6  7  2  0  0  0  0
  6  8  1  0  0  0  0
  8  9  1  0  0  0  0
  9 10  1  0  0  0  0
  9 22  1  0  0  0  0
  9 23  1  0  0  0  0
 10 24  1  0  0  0  0
 10 25  1  0  0  0  0
 10 26  1  0  0  0  0
M  END
$$$$
