
 OpenBabel07122215493D

 29 29  0  0  1  0  0  0  0  0999 V2000
    2.9631    0.2966    1.4540 C   0  0  0  0  0  0  0  0  0  0  0  0
    2.4882   -0.0621    0.0498 C   0  0  1  0  0  0  0  0  0  0  0  0
    2.9792    0.9774   -0.9664 C   0  0  0  0  0  0  0  0  0  0  0  0
    2.5351    0.6157   -2.3798 C   0  0  0  0  0  0  0  0  0  0  0  0
    2.9894   -0.8007   -2.7825 C   0  0  1  0  0  0  0  0  0  0  0  0
    2.4970   -1.8234   -1.7528 C   0  0  0  0  0  0  0  0  0  0  0  0
    2.9627   -1.4678   -0.3463 C   0  0  2  0  0  0  0  0  0  0  0  0
    2.4530   -2.4411    0.5609 O   0  0  0  0  0  0  0  0  0  0  0  0
    2.5237   -1.2278   -4.1647 C   0  0  0  0  0  0  0  0  0  0  0  0
    1.3648   -0.8218   -4.7160 C   0  0  0  0  0  0  0  0  0  0  0  0
    3.4304   -2.1809   -4.8949 C   0  0  0  0  0  0  0  0  0  0  0  0
    2.5969    1.2860    1.7448 H   0  0  0  0  0  0  0  0  0  0  0  0
    4.0566    0.3055    1.5034 H   0  0  0  0  0  0  0  0  0  0  0  0
    2.5942   -0.4261    2.1885 H   0  0  0  0  0  0  0  0  0  0  0  0
    1.3889   -0.0533    0.0642 H   0  0  0  0  0  0  0  0  0  0  0  0
    4.0732    1.0509   -0.9356 H   0  0  0  0  0  0  0  0  0  0  0  0
    2.5836    1.9680   -0.7115 H   0  0  0  0  0  0  0  0  0  0  0  0
    2.9272    1.3525   -3.0915 H   0  0  0  0  0  0  0  0  0  0  0  0
    1.4420    0.6933   -2.4062 H   0  0  0  0  0  0  0  0  0  0  0  0
    4.0900   -0.7975   -2.7761 H   0  0  0  0  0  0  0  0  0  0  0  0
    2.8331   -2.8377   -2.0012 H   0  0  0  0  0  0  0  0  0  0  0  0
    1.3985   -1.8668   -1.7670 H   0  0  0  0  0  0  0  0  0  0  0  0
    4.0573   -1.5202   -0.2975 H   0  0  0  0  0  0  0  0  0  0  0  0
    1.4833   -2.4364    0.4866 H   0  0  0  0  0  0  0  0  0  0  0  0
    1.0519   -1.1622   -5.6960 H   0  0  0  0  0  0  0  0  0  0  0  0
    0.6797   -0.1587   -4.2007 H   0  0  0  0  0  0  0  0  0  0  0  0
    3.0231   -2.4627   -5.8711 H   0  0  0  0  0  0  0  0  0  0  0  0
    3.5711   -3.1003   -4.3171 H   0  0  0  0  0  0  0  0  0  0  0  0
    4.4101   -1.7213   -5.0609 H   0  0  0  0  0  0  0  0  0  0  0  0
  1 12  1  0  0  0  0
  1 13  1  0  0  0  0
  1 14  1  0  0  0  0
  2  3  1  0  0  0  0
  2  7  1  0  0  0  0
  2  1  1  0  0  0  0
  2 15  1  6  0  0  0
  3  4  1  0  0  0  0
  3 16  1  0  0  0  0
  3 17  1  0  0  0  0
  4  5  1  0  0  0  0
  4 18  1  0  0  0  0
  4 19  1  0  0  0  0
  5  6  1  0  0  0  0
  5  9  1  0  0  0  0
  5 20  1  1  0  0  0
  6  7  1  0  0  0  0
  6 21  1  0  0  0  0
  6 22  1  0  0  0  0
  7  8  1  0  0  0  0
  7 23  1  1  0  0  0
  8 24  1  0  0  0  0
  9 10  2  0  0  0  0
  9 11  1  0  0  0  0
 10 25  1  0  0  0  0
 10 26  1  0  0  0  0
 11 27  1  0  0  0  0
 11 28  1  0  0  0  0
 11 29  1  0  0  0  0
M  END
$$$$
