
 OpenBabel07122215493D

 13 12  0  0  0  0  0  0  0  0999 V2000
    0.9604    0.1446    0.0890 C   0  0  0  0  0  0  0  0  0  0  0  0
    2.4715    0.0683    0.0100 C   0  0  0  0  0  0  0  0  0  0  0  0
    3.0066   -0.9185   -1.0125 C   0  0  0  0  0  0  0  0  0  0  0  0
    2.0660   -1.7380   -1.8616 C   0  0  0  0  0  0  0  0  0  0  0  0
    4.2287   -1.0531   -1.1520 O   0  0  0  0  0  0  0  0  0  0  0  0
    0.6384    0.8696    0.8402 H   0  0  0  0  0  0  0  0  0  0  0  0
    0.5395   -0.8298    0.3597 H   0  0  0  0  0  0  0  0  0  0  0  0
    0.5395    0.4497   -0.8752 H   0  0  0  0  0  0  0  0  0  0  0  0
    2.8697   -0.2188    0.9902 H   0  0  0  0  0  0  0  0  0  0  0  0
    2.8697    1.0581   -0.2421 H   0  0  0  0  0  0  0  0  0  0  0  0
    1.0139   -1.5434   -1.6600 H   0  0  0  0  0  0  0  0  0  0  0  0
    2.2436   -2.7982   -1.6669 H   0  0  0  0  0  0  0  0  0  0  0  0
    2.2436   -1.5057   -2.9143 H   0  0  0  0  0  0  0  0  0  0  0  0
  1  2  1  0  0  0  0
  1  6  1  0  0  0  0
  1  7  1  0  0  0  0
  1  8  1  0  0  0  0
  2  3  1  0  0  0  0
  2  9  1  0  0  0  0
  2 10  1  0  0  0  0
  3  4  1  0  0  0  0
  3  5  2  0  0  0  0
  4 11  1  0  0  0  0
  4 12  1  0  0  0  0
  4 13  1  0  0  0  0
M  END
$$$$
