
 OpenBabel07122215493D

  7  6  0  0  0  0  0  0  0  0999 V2000
    0.9748    0.0595   -0.1302 S   0  0  0  0  0  0  0  0  0  0  0  0
    2.7788   -0.0008   -0.1003 C   0  0  0  0  0  0  0  0  0  0  0  0
    3.4822    1.6604   -0.1021 S   0  0  0  0  0  0  0  0  0  0  0  0
    0.7811   -1.2649   -0.0532 H   0  0  0  0  0  0  0  0  0  0  0  0
    3.1334   -0.5434   -0.9810 H   0  0  0  0  0  0  0  0  0  0  0  0
    3.1115   -0.5343    0.7934 H   0  0  0  0  0  0  0  0  0  0  0  0
    2.8774    2.0673   -1.2269 H   0  0  0  0  0  0  0  0  0  0  0  0
  1  2  1  0  0  0  0
  1  4  1  0  0  0  0
  2  3  1  0  0  0  0
  2  5  1  0  0  0  0
  2  6  1  0  0  0  0
  3  7  1  0  0  0  0
M  END
$$$$
