
 OpenBabel07122215493D

 34 34  0  0  0  0  0  0  0  0999 V2000
    1.1088    0.0248   -0.0170 C   0  0  0  0  0  0  0  0  0  0  0  0
    2.6086   -0.0243   -0.0261 C   0  0  0  0  0  0  0  0  0  0  0  0
    3.2306   -0.8205   -0.7299 O   0  0  0  0  0  0  0  0  0  0  0  0
    3.3027    0.9548    0.8485 C   0  0  0  0  0  0  0  0  0  0  0  0
    4.6409    0.9493    0.9336 C   0  0  0  0  0  0  0  0  0  0  0  0
    5.5067    1.9627    1.6574 C   0  0  0  0  0  0  0  0  0  0  0  0
    4.7887    2.5620    2.8601 C   0  0  0  0  0  0  0  0  0  0  0  0
    4.4212    3.8568    2.9190 C   0  0  0  0  0  0  0  0  0  0  0  0
    4.6469    4.8357    1.8005 C   0  0  0  0  0  0  0  0  0  0  0  0
    5.0122    4.1571    0.4757 C   0  0  0  0  0  0  0  0  0  0  0  0
    6.0615    3.0354    0.6563 C   0  0  0  0  0  0  0  0  0  0  0  0
    7.3812    3.6272    1.1997 C   0  0  0  0  0  0  0  0  0  0  0  0
    6.3777    2.4036   -0.7192 C   0  0  0  0  0  0  0  0  0  0  0  0
    4.5022    1.5982    3.9806 C   0  0  0  0  0  0  0  0  0  0  0  0
    0.7189   -0.7559   -0.6754 H   0  0  0  0  0  0  0  0  0  0  0  0
    0.7632    0.9965   -0.3801 H   0  0  0  0  0  0  0  0  0  0  0  0
    0.7420   -0.1558    0.9967 H   0  0  0  0  0  0  0  0  0  0  0  0
    2.6944    1.6911    1.3589 H   0  0  0  0  0  0  0  0  0  0  0  0
    5.1996    0.2042    0.3650 H   0  0  0  0  0  0  0  0  0  0  0  0
    6.3688    1.4113    2.0607 H   0  0  0  0  0  0  0  0  0  0  0  0
    3.9292    4.2456    3.8087 H   0  0  0  0  0  0  0  0  0  0  0  0
    5.4395    5.5333    2.0968 H   0  0  0  0  0  0  0  0  0  0  0  0
    3.7433    5.4382    1.6529 H   0  0  0  0  0  0  0  0  0  0  0  0
    5.3708    4.9117   -0.2346 H   0  0  0  0  0  0  0  0  0  0  0  0
    4.0972    3.7376    0.0357 H   0  0  0  0  0  0  0  0  0  0  0  0
    7.2569    4.1207    2.1679 H   0  0  0  0  0  0  0  0  0  0  0  0
    7.7924    4.3646    0.5012 H   0  0  0  0  0  0  0  0  0  0  0  0
    8.1329    2.8414    1.3345 H   0  0  0  0  0  0  0  0  0  0  0  0
    5.4762    2.0118   -1.2050 H   0  0  0  0  0  0  0  0  0  0  0  0
    7.0863    1.5741   -0.6071 H   0  0  0  0  0  0  0  0  0  0  0  0
    6.8088    3.1311   -1.4120 H   0  0  0  0  0  0  0  0  0  0  0  0
    4.8782    0.5969    3.7387 H   0  0  0  0  0  0  0  0  0  0  0  0
    3.4237    1.5026    4.1425 H   0  0  0  0  0  0  0  0  0  0  0  0
    4.9913    1.9112    4.9060 H   0  0  0  0  0  0  0  0  0  0  0  0
  1  2  1  0  0  0  0
  1 15  1  0  0  0  0
  1 16  1  0  0  0  0
  1 17  1  0  0  0  0
  2  3  2  0  0  0  0
  2  4  1  0  0  0  0
  4  5  2  0  0  0  0
  4 18  1  0  0  0  0
  5  6  1  0  0  0  0
  5 19  1  0  0  0  0
  6  7  1  0  0  0  0
  6 11  1  0  0  0  0
  6 20  1  0  0  0  0
  7  8  2  0  0  0  0
  7 14  1  0  0  0  0
  8  9  1  0  0  0  0
  8 21  1  0  0  0  0
  9 10  1  0  0  0  0
  9 22  1  0  0  0  0
  9 23  1  0  0  0  0
 10 11  1  0  0  0  0
 10 24  1  0  0  0  0
 10 25  1  0  0  0  0
 11 12  1  0  0  0  0
 11 13  1  0  0  0  0
 12 26  1  0  0  0  0
 12 27  1  0  0  0  0
 12 28  1  0  0  0  0
 13 29  1  0  0  0  0
 13 30  1  0  0  0  0
 13 31  1  0  0  0  0
 14 32  1  0  0  0  0
 14 33  1  0  0  0  0
 14 34  1  0  0  0  0
M  END
$$$$
