
 OpenBabel07122215493D

 32 31  0  0  0  0  0  0  0  0999 V2000
    1.0211    0.0563   -0.0763 C   0  0  0  0  0  0  0  0  0  0  0  0
    2.5385    0.0628   -0.0690 C   0  0  0  0  0  0  0  0  0  0  0  0
    3.0634    1.0188    0.9961 C   0  0  0  0  0  0  0  0  0  0  0  0
    4.5866    1.0328    1.0117 C   0  0  0  0  0  0  0  0  0  0  0  0
    5.1057    1.9926    2.0811 C   0  0  0  0  0  0  0  0  0  0  0  0
    6.6297    2.0022    2.0917 C   0  0  0  0  0  0  0  0  0  0  0  0
    7.2053    2.9499    3.1477 C   0  0  0  0  0  0  0  0  0  0  0  0
    8.7201    2.9142    3.1079 C   0  0  0  0  0  0  0  0  0  0  0  0
    9.3754    2.2219    2.3366 O   0  0  0  0  0  0  0  0  0  0  0  0
    9.2648    3.7506    4.0398 O   0  0  0  0  0  0  0  0  0  0  0  0
   10.7038    3.7460    4.0347 C   0  0  0  0  0  0  0  0  0  0  0  0
   11.2290    4.6976    5.0949 C   0  0  0  0  0  0  0  0  0  0  0  0
    0.6472   -0.6300   -0.8410 H   0  0  0  0  0  0  0  0  0  0  0  0
    0.6306    1.0564   -0.2900 H   0  0  0  0  0  0  0  0  0  0  0  0
    0.6306   -0.2639    0.8950 H   0  0  0  0  0  0  0  0  0  0  0  0
    2.9082    0.3629   -1.0565 H   0  0  0  0  0  0  0  0  0  0  0  0
    2.9082   -0.9512    0.1230 H   0  0  0  0  0  0  0  0  0  0  0  0
    2.6878    0.7172    1.9816 H   0  0  0  0  0  0  0  0  0  0  0  0
    2.6878    2.0310    0.8024 H   0  0  0  0  0  0  0  0  0  0  0  0
    4.9629    1.3339    0.0260 H   0  0  0  0  0  0  0  0  0  0  0  0
    4.9629    0.0204    1.2049 H   0  0  0  0  0  0  0  0  0  0  0  0
    4.7271    1.6873    3.0638 H   0  0  0  0  0  0  0  0  0  0  0  0
    4.7271    3.0025    1.8834 H   0  0  0  0  0  0  0  0  0  0  0  0
    6.9959    2.2935    1.0988 H   0  0  0  0  0  0  0  0  0  0  0  0
    6.9959    0.9836    2.2744 H   0  0  0  0  0  0  0  0  0  0  0  0
    6.8633    2.6435    4.1424 H   0  0  0  0  0  0  0  0  0  0  0  0
    6.8633    3.9718    2.9502 H   0  0  0  0  0  0  0  0  0  0  0  0
   11.0693    4.0659    3.0517 H   0  0  0  0  0  0  0  0  0  0  0  0
   11.0693    2.7343    4.2469 H   0  0  0  0  0  0  0  0  0  0  0  0
   10.8771    5.7177    4.9122 H   0  0  0  0  0  0  0  0  0  0  0  0
   12.3242    4.7035    5.1015 H   0  0  0  0  0  0  0  0  0  0  0  0
   10.8771    4.4060    6.0894 H   0  0  0  0  0  0  0  0  0  0  0  0
  1  2  1  0  0  0  0
  1 13  1  0  0  0  0
  1 14  1  0  0  0  0
  1 15  1  0  0  0  0
  2  3  1  0  0  0  0
  2 16  1  0  0  0  0
  2 17  1  0  0  0  0
  3  4  1  0  0  0  0
  3 18  1  0  0  0  0
  3 19  1  0  0  0  0
  4  5  1  0  0  0  0
  4 20  1  0  0  0  0
  4 21  1  0  0  0  0
  5  6  1  0  0  0  0
  5 22  1  0  0  0  0
  5 23  1  0  0  0  0
  6  7  1  0  0  0  0
  6 24  1  0  0  0  0
  6 25  1  0  0  0  0
  7  8  1  0  0  0  0
  7 26  1  0  0  0  0
  7 27  1  0  0  0  0
  8  9  2  0  0  0  0
  8 10  1  0  0  0  0
 10 11  1  0  0  0  0
 11 12  1  0  0  0  0
 11 28  1  0  0  0  0
 11 29  1  0  0  0  0
 12 30  1  0  0  0  0
 12 31  1  0  0  0  0
 12 32  1  0  0  0  0
M  END
$$$$
