
 OpenBabel07122215493D

 27 26  0  0  0  0  0  0  0  0999 V2000
    1.0166   -0.0667    0.0055 C   0  0  0  0  0  0  0  0  0  0  0  0
    2.5304   -0.0649    0.0168 C   0  0  0  0  0  0  0  0  0  0  0  0
    3.0939   -1.0884   -0.9709 C   0  0  0  0  0  0  0  0  0  0  0  0
    4.6262   -1.1206   -0.9654 C   0  0  0  0  0  0  0  0  0  0  0  0
    5.2776   -1.5192    0.7132 S   0  0  0  0  0  0  0  0  0  0  0  0
    5.1594   -2.1073   -2.0135 C   0  0  0  0  0  0  0  0  0  0  0  0
    6.6833   -2.0937   -2.0575 C   0  0  0  0  0  0  0  0  0  0  0  0
    7.1622   -3.0110   -3.0452 O   0  0  0  0  0  0  0  0  0  0  0  0
    8.4931   -3.2137   -3.2023 C   0  0  0  0  0  0  0  0  0  0  0  0
    9.4643   -2.4124   -2.3741 C   0  0  0  0  0  0  0  0  0  0  0  0
    8.9033   -4.0337   -4.0232 O   0  0  0  0  0  0  0  0  0  0  0  0
    0.6398    0.6510    0.7397 H   0  0  0  0  0  0  0  0  0  0  0  0
    0.6331   -1.0580    0.2673 H   0  0  0  0  0  0  0  0  0  0  0  0
    0.6334    0.2078   -0.9809 H   0  0  0  0  0  0  0  0  0  0  0  0
    2.8546   -0.2879    1.0377 H   0  0  0  0  0  0  0  0  0  0  0  0
    2.9058    0.9348   -0.2312 H   0  0  0  0  0  0  0  0  0  0  0  0
    2.7452   -0.8306   -1.9808 H   0  0  0  0  0  0  0  0  0  0  0  0
    2.6920   -2.0864   -0.7535 H   0  0  0  0  0  0  0  0  0  0  0  0
    4.9935   -0.1173   -1.2146 H   0  0  0  0  0  0  0  0  0  0  0  0
    4.7094   -2.7290    0.8295 H   0  0  0  0  0  0  0  0  0  0  0  0
    4.7731   -1.8412   -3.0074 H   0  0  0  0  0  0  0  0  0  0  0  0
    4.7911   -3.1239   -1.8241 H   0  0  0  0  0  0  0  0  0  0  0  0
    7.0856   -2.4038   -1.0902 H   0  0  0  0  0  0  0  0  0  0  0  0
    7.0227   -1.0840   -2.3127 H   0  0  0  0  0  0  0  0  0  0  0  0
    9.0095   -1.7195   -1.6681 H   0  0  0  0  0  0  0  0  0  0  0  0
   10.0901   -1.8185   -3.0456 H   0  0  0  0  0  0  0  0  0  0  0  0
   10.0853   -3.1001   -1.7934 H   0  0  0  0  0  0  0  0  0  0  0  0
  1  2  1  0  0  0  0
  1 12  1  0  0  0  0
  1 13  1  0  0  0  0
  1 14  1  0  0  0  0
  2  3  1  0  0  0  0
  2 15  1  0  0  0  0
  2 16  1  0  0  0  0
  3  4  1  0  0  0  0
  3 17  1  0  0  0  0
  3 18  1  0  0  0  0
  4  5  1  0  0  0  0
  4  6  1  0  0  0  0
  4 19  1  0  0  0  0
  5 20  1  0  0  0  0
  6  7  1  0  0  0  0
  6 21  1  0  0  0  0
  6 22  1  0  0  0  0
  7  8  1  0  0  0  0
  7 23  1  0  0  0  0
  7 24  1  0  0  0  0
  8  9  1  0  0  0  0
  9 10  1  0  0  0  0
  9 11  2  0  0  0  0
 10 25  1  0  0  0  0
 10 26  1  0  0  0  0
 10 27  1  0  0  0  0
M  END
$$$$
