
 OpenBabel07122215493D

 23 22  0  0  0  0  0  0  0  0999 V2000
    1.0085   -0.0550   -0.0705 C   0  0  0  0  0  0  0  0  0  0  0  0
    2.5257   -0.0703   -0.0699 C   0  0  0  0  0  0  0  0  0  0  0  0
    3.0496   -1.5031   -0.0125 C   0  0  0  0  0  0  0  0  0  0  0  0
    4.5714   -1.5166   -0.0120 C   0  0  0  0  0  0  0  0  0  0  0  0
    5.1292   -2.9374    0.0449 C   0  0  0  0  0  0  0  0  0  0  0  0
    6.6458   -2.9052    0.0436 C   0  0  0  0  0  0  0  0  0  0  0  0
    7.2852   -1.8542    0.0015 O   0  0  0  0  0  0  0  0  0  0  0  0
    7.3491   -4.2179    0.0962 C   0  0  0  0  0  0  0  0  0  0  0  0
    8.6878   -4.2502    0.0975 C   0  0  0  0  0  0  0  0  0  0  0  0
    0.6376    0.9729   -0.1117 H   0  0  0  0  0  0  0  0  0  0  0  0
    0.6167   -0.5264    0.8363 H   0  0  0  0  0  0  0  0  0  0  0  0
    0.6167   -0.5974   -0.9368 H   0  0  0  0  0  0  0  0  0  0  0  0
    2.8965    0.4997    0.7904 H   0  0  0  0  0  0  0  0  0  0  0  0
    2.8965    0.4291   -0.9730 H   0  0  0  0  0  0  0  0  0  0  0  0
    2.6749   -2.0688   -0.8739 H   0  0  0  0  0  0  0  0  0  0  0  0
    2.6749   -1.9982    0.8913 H   0  0  0  0  0  0  0  0  0  0  0  0
    4.9424   -0.9416    0.8462 H   0  0  0  0  0  0  0  0  0  0  0  0
    4.9424   -1.0120   -0.9134 H   0  0  0  0  0  0  0  0  0  0  0  0
    4.7838   -3.5090   -0.8242 H   0  0  0  0  0  0  0  0  0  0  0  0
    4.7838   -3.4377    0.9569 H   0  0  0  0  0  0  0  0  0  0  0  0
    6.7544   -5.1219    0.1324 H   0  0  0  0  0  0  0  0  0  0  0  0
    9.2742   -3.3340    0.0608 H   0  0  0  0  0  0  0  0  0  0  0  0
    9.2316   -5.1866    0.1350 H   0  0  0  0  0  0  0  0  0  0  0  0
  1  2  1  0  0  0  0
  1 10  1  0  0  0  0
  1 11  1  0  0  0  0
  1 12  1  0  0  0  0
  2  3  1  0  0  0  0
  2 13  1  0  0  0  0
  2 14  1  0  0  0  0
  3  4  1  0  0  0  0
  3 15  1  0  0  0  0
  3 16  1  0  0  0  0
  4  5  1  0  0  0  0
  4 17  1  0  0  0  0
  4 18  1  0  0  0  0
  5  6  1  0  0  0  0
  5 19  1  0  0  0  0
  5 20  1  0  0  0  0
  6  7  2  0  0  0  0
  6  8  1  0  0  0  0
  8  9  2  0  0  0  0
  8 21  1  0  0  0  0
  9 22  1  0  0  0  0
  9 23  1  0  0  0  0
M  END
$$$$
