
 OpenBabel07122215493D

 16 15  0  0  0  0  0  0  0  0999 V2000
    0.9829   -0.0456    0.0726 C   0  0  0  0  0  0  0  0  0  0  0  0
    2.5190   -0.0836    0.0544 C   0  0  0  0  0  0  0  0  0  0  0  0
    3.0036   -1.5124   -0.2264 C   0  0  0  0  0  0  0  0  0  0  0  0
    2.5102   -2.4129    0.7601 O   0  0  0  0  0  0  0  0  0  0  0  0
    3.0427    0.9247   -0.9805 C   0  0  0  0  0  0  0  0  0  0  0  0
    4.8595    1.0273   -1.0678 S   0  0  0  0  0  0  0  0  0  0  0  0
    0.5768   -0.7176    0.8361 H   0  0  0  0  0  0  0  0  0  0  0  0
    0.5708   -0.3501   -0.8959 H   0  0  0  0  0  0  0  0  0  0  0  0
    0.6166    0.9622    0.2946 H   0  0  0  0  0  0  0  0  0  0  0  0
    2.8551    0.2144    1.0568 H   0  0  0  0  0  0  0  0  0  0  0  0
    4.0944   -1.5865   -0.2160 H   0  0  0  0  0  0  0  0  0  0  0  0
    2.6512   -1.8561   -1.2043 H   0  0  0  0  0  0  0  0  0  0  0  0
    2.8588   -2.1243    1.6192 H   0  0  0  0  0  0  0  0  0  0  0  0
    2.6714    1.9283   -0.7462 H   0  0  0  0  0  0  0  0  0  0  0  0
    2.6772    0.6658   -1.9800 H   0  0  0  0  0  0  0  0  0  0  0  0
    5.0767    1.3101    0.2248 H   0  0  0  0  0  0  0  0  0  0  0  0
  1  2  1  0  0  0  0
  1  7  1  0  0  0  0
  1  8  1  0  0  0  0
  1  9  1  0  0  0  0
  2  3  1  0  0  0  0
  2  5  1  0  0  0  0
  2 10  1  0  0  0  0
  3  4  1  0  0  0  0
  3 11  1  0  0  0  0
  3 12  1  0  0  0  0
  4 13  1  0  0  0  0
  5  6  1  0  0  0  0
  5 14  1  0  0  0  0
  5 15  1  0  0  0  0
  6 16  1  0  0  0  0
M  END
$$$$
