
 OpenBabel07122215493D

 17 16  0  0  0  0  0  0  0  0999 V2000
    1.0511   -0.0591   -0.0657 C   0  0  0  0  0  0  0  0  0  0  0  0
    2.5714   -0.0522   -0.0627 C   0  0  0  0  0  0  0  0  0  0  0  0
    3.1187    1.2490    0.5156 C   0  0  0  0  0  0  0  0  0  0  0  0
    4.6451    1.2695    0.5247 C   0  0  0  0  0  0  0  0  0  0  0  0
    5.0609    2.5249    1.0825 O   0  0  0  0  0  0  0  0  0  0  0  0
    6.3909    2.7401    1.1781 C   0  0  0  0  0  0  0  0  0  0  0  0
    6.8802    3.7642    1.6332 O   0  0  0  0  0  0  0  0  0  0  0  0
    0.6758   -0.9985   -0.4831 H   0  0  0  0  0  0  0  0  0  0  0  0
    0.6575    0.7638   -0.6710 H   0  0  0  0  0  0  0  0  0  0  0  0
    0.6575    0.0432    0.9507 H   0  0  0  0  0  0  0  0  0  0  0  0
    2.9344   -0.1860   -1.0882 H   0  0  0  0  0  0  0  0  0  0  0  0
    2.9344   -0.9031    0.5254 H   0  0  0  0  0  0  0  0  0  0  0  0
    2.7460    1.3947    1.5376 H   0  0  0  0  0  0  0  0  0  0  0  0
    2.7460    2.1052   -0.0613 H   0  0  0  0  0  0  0  0  0  0  0  0
    5.0312    1.1747   -0.4968 H   0  0  0  0  0  0  0  0  0  0  0  0
    5.0312    0.4479    1.1389 H   0  0  0  0  0  0  0  0  0  0  0  0
    6.9956    1.9001    0.8049 H   0  0  0  0  0  0  0  0  0  0  0  0
  1  2  1  0  0  0  0
  1  8  1  0  0  0  0
  1  9  1  0  0  0  0
  1 10  1  0  0  0  0
  2  3  1  0  0  0  0
  2 11  1  0  0  0  0
  2 12  1  0  0  0  0
  3  4  1  0  0  0  0
  3 13  1  0  0  0  0
  3 14  1  0  0  0  0
  4  5  1  0  0  0  0
  4 15  1  0  0  0  0
  4 16  1  0  0  0  0
  5  6  1  0  0  0  0
  6  7  2  0  0  0  0
  6 17  1  0  0  0  0
M  END
$$$$
