
 OpenBabel07122215493D

 29 29  0  0  0  0  0  0  0  0999 V2000
    1.0990   -0.0275    0.0239 C   0  0  0  0  0  0  0  0  0  0  0  0
    2.6212   -0.0168    0.0066 C   0  0  0  0  0  0  0  0  0  0  0  0
    3.1639    0.7294   -1.2172 C   0  0  0  0  0  0  0  0  0  0  0  0
    4.6945    0.7505   -1.2461 C   0  0  0  0  0  0  0  0  0  0  0  0
    5.1613    1.4846   -2.4019 O   0  0  0  0  0  0  0  0  0  0  0  0
    6.5220    1.5188   -2.5198 C   0  0  0  0  0  0  0  0  0  0  0  0
    7.3059    0.9630   -1.7578 O   0  0  0  0  0  0  0  0  0  0  0  0
    6.9891    2.2696   -3.7223 C   0  0  0  0  0  0  0  0  0  0  0  0
    8.1316    1.7694   -4.3806 C   0  0  0  0  0  0  0  0  0  0  0  0
    8.7220    2.4741   -5.4334 C   0  0  0  0  0  0  0  0  0  0  0  0
    8.1835    3.6912   -5.8332 C   0  0  0  0  0  0  0  0  0  0  0  0
    7.0482    4.1924   -5.1878 C   0  0  0  0  0  0  0  0  0  0  0  0
    6.4122    3.4824   -4.1493 C   0  0  0  0  0  0  0  0  0  0  0  0
    5.4112    4.1403   -3.4146 N   0  0  0  0  0  0  0  0  0  0  0  0
    0.7282   -0.5629    0.9043 H   0  0  0  0  0  0  0  0  0  0  0  0
    0.7013   -0.5244   -0.8666 H   0  0  0  0  0  0  0  0  0  0  0  0
    0.7012    0.9919    0.0558 H   0  0  0  0  0  0  0  0  0  0  0  0
    2.9850   -1.0512    0.0096 H   0  0  0  0  0  0  0  0  0  0  0  0
    2.9845    0.4556    0.9271 H   0  0  0  0  0  0  0  0  0  0  0  0
    2.7843    1.7583   -1.2237 H   0  0  0  0  0  0  0  0  0  0  0  0
    2.7867    0.2613   -2.1347 H   0  0  0  0  0  0  0  0  0  0  0  0
    5.0709   -0.2794   -1.2837 H   0  0  0  0  0  0  0  0  0  0  0  0
    5.0678    1.2398   -0.3386 H   0  0  0  0  0  0  0  0  0  0  0  0
    8.5857    0.8365   -4.0511 H   0  0  0  0  0  0  0  0  0  0  0  0
    9.6164    2.0894   -5.9191 H   0  0  0  0  0  0  0  0  0  0  0  0
    8.6583    4.2643   -6.6278 H   0  0  0  0  0  0  0  0  0  0  0  0
    6.6740    5.1679   -5.4921 H   0  0  0  0  0  0  0  0  0  0  0  0
    4.9005    4.8622   -3.9117 H   0  0  0  0  0  0  0  0  0  0  0  0
    4.8093    3.5092   -2.8863 H   0  0  0  0  0  0  0  0  0  0  0  0
  1  2  1  0  0  0  0
  1 15  1  0  0  0  0
  1 16  1  0  0  0  0
  1 17  1  0  0  0  0
  2  3  1  0  0  0  0
  2 18  1  0  0  0  0
  2 19  1  0  0  0  0
  3  4  1  0  0  0  0
  3 20  1  0  0  0  0
  3 21  1  0  0  0  0
  4  5  1  0  0  0  0
  4 22  1  0  0  0  0
  4 23  1  0  0  0  0
  5  6  1  0  0  0  0
  6  7  2  0  0  0  0
  6  8  1  0  0  0  0
  8  9  1  0  0  0  0
  8 13  2  0  0  0  0
  9 10  2  0  0  0  0
  9 24  1  0  0  0  0
 10 11  1  0  0  0  0
 10 25  1  0  0  0  0
 11 12  2  0  0  0  0
 11 26  1  0  0  0  0
 12 13  1  0  0  0  0
 12 27  1  0  0  0  0
 13 14  1  0  0  0  0
 14 28  1  0  0  0  0
 14 29  1  0  0  0  0
M  END
$$$$
