
 OpenBabel07122215493D

 26 26  0  0  0  0  0  0  0  0999 V2000
    1.0164   -0.1058   -0.3215 C   0  0  0  0  0  0  0  0  0  0  0  0
    2.5558   -0.0666   -0.3557 C   0  0  0  0  0  0  0  0  0  0  0  0
    3.0790    0.7752    0.8133 C   0  0  0  0  0  0  0  0  0  0  0  0
    2.3598    0.2744    1.9913 C   0  0  0  0  0  0  0  0  0  0  0  0
    4.5652    0.6917    1.1669 C   0  0  0  0  0  0  0  0  0  0  0  0
    5.3042    1.0365    0.0609 N   0  0  0  0  0  0  0  0  0  0  0  0
    6.6503    1.0063    0.1868 C   0  0  0  0  0  0  0  0  0  0  0  0
    7.2330    0.6493    1.3653 C   0  0  0  0  0  0  0  0  0  0  0  0
    6.5369    0.3379    2.4835 N   0  0  0  0  0  0  0  0  0  0  0  0
    5.1660    0.3667    2.4301 C   0  0  0  0  0  0  0  0  0  0  0  0
    4.7106    0.0358    3.6813 O   0  0  0  0  0  0  0  0  0  0  0  0
    3.4380   -0.0250    4.3426 C   0  0  0  0  0  0  0  0  0  0  0  0
    0.6038   -0.6287   -1.1796 H   0  0  0  0  0  0  0  0  0  0  0  0
    0.6092    0.9114   -0.2635 H   0  0  0  0  0  0  0  0  0  0  0  0
    0.6341   -0.6555    0.5494 H   0  0  0  0  0  0  0  0  0  0  0  0
    2.9018    0.3388   -1.3104 H   0  0  0  0  0  0  0  0  0  0  0  0
    2.9394   -1.0913   -0.2726 H   0  0  0  0  0  0  0  0  0  0  0  0
    2.8255    1.8343    0.6624 H   0  0  0  0  0  0  0  0  0  0  0  0
    2.7154   -0.7605    2.1252 H   0  0  0  0  0  0  0  0  0  0  0  0
    1.2825    0.2720    2.0879 H   0  0  0  0  0  0  0  0  0  0  0  0
    2.6387    1.0513    2.6762 H   0  0  0  0  0  0  0  0  0  0  0  0
    7.2153    1.2733   -0.6992 H   0  0  0  0  0  0  0  0  0  0  0  0
    8.3222    0.6005    1.4537 H   0  0  0  0  0  0  0  0  0  0  0  0
    3.5311   -0.2702    5.4027 H   0  0  0  0  0  0  0  0  0  0  0  0
    2.8082   -0.8442    3.9731 H   0  0  0  0  0  0  0  0  0  0  0  0
    2.9138    0.9405    4.3768 H   0  0  0  0  0  0  0  0  0  0  0  0
  1  2  1  0  0  0  0
  1 13  1  0  0  0  0
  1 14  1  0  0  0  0
  1 15  1  0  0  0  0
  2  3  1  0  0  0  0
  2 16  1  0  0  0  0
  2 17  1  0  0  0  0
  3  4  1  0  0  0  0
  3  5  1  0  0  0  0
  3 18  1  0  0  0  0
  4 19  1  0  0  0  0
  4 20  1  0  0  0  0
  4 21  1  0  0  0  0
  5  6  2  0  0  0  0
  5 10  1  0  0  0  0
  6  7  1  0  0  0  0
  7  8  2  0  0  0  0
  7 22  1  0  0  0  0
  8  9  1  0  0  0  0
  8 23  1  0  0  0  0
  9 10  2  0  0  0  0
 10 11  1  0  0  0  0
 11 12  1  0  0  0  0
 12 24  1  0  0  0  0
 12 25  1  0  0  0  0
 12 26  1  0  0  0  0
M  END
$$$$
