
 OpenBabel07122215493D

 34 34  0  0  0  0  0  0  0  0999 V2000
    1.0754   -0.0294    0.0695 C   0  0  0  0  0  0  0  0  0  0  0  0
    2.5806   -0.0785    0.0858 C   0  0  0  0  0  0  0  0  0  0  0  0
    3.1964   -0.7602    0.9046 O   0  0  0  0  0  0  0  0  0  0  0  0
    3.2850    0.7535   -0.9293 C   0  0  0  0  0  0  0  0  0  0  0  0
    4.6222    0.8717   -0.9216 C   0  0  0  0  0  0  0  0  0  0  0  0
    5.4032    1.7112   -1.8396 C   0  0  0  0  0  0  0  0  0  0  0  0
    5.0968    3.0129   -2.0750 C   0  0  0  0  0  0  0  0  0  0  0  0
    3.9978    3.7951   -1.3965 C   0  0  0  0  0  0  0  0  0  0  0  0
    5.8705    3.8783   -3.0509 C   0  0  0  0  0  0  0  0  0  0  0  0
    6.8302    3.1188   -3.9529 C   0  0  0  0  0  0  0  0  0  0  0  0
    7.5970    2.0948   -3.1359 C   0  0  0  0  0  0  0  0  0  0  0  0
    6.6552    1.0472   -2.4749 C   0  0  0  0  0  0  0  0  0  0  0  0
    7.5171    0.3021   -1.4294 C   0  0  0  0  0  0  0  0  0  0  0  0
    6.2099    0.0347   -3.5508 C   0  0  0  0  0  0  0  0  0  0  0  0
    0.6816   -0.7041    0.8358 H   0  0  0  0  0  0  0  0  0  0  0  0
    0.7015   -0.3572   -0.9039 H   0  0  0  0  0  0  0  0  0  0  0  0
    0.7265    0.9838    0.2886 H   0  0  0  0  0  0  0  0  0  0  0  0
    2.6645    1.3003   -1.6281 H   0  0  0  0  0  0  0  0  0  0  0  0
    5.1835    0.2972   -0.1868 H   0  0  0  0  0  0  0  0  0  0  0  0
    3.4274    3.2326   -0.6581 H   0  0  0  0  0  0  0  0  0  0  0  0
    3.2902    4.1692   -2.1435 H   0  0  0  0  0  0  0  0  0  0  0  0
    4.4287    4.6448   -0.8586 H   0  0  0  0  0  0  0  0  0  0  0  0
    6.4344    4.6221   -2.4736 H   0  0  0  0  0  0  0  0  0  0  0  0
    5.1714    4.4324   -3.6894 H   0  0  0  0  0  0  0  0  0  0  0  0
    7.5255    3.8225   -4.4255 H   0  0  0  0  0  0  0  0  0  0  0  0
    6.2801    2.6331   -4.7667 H   0  0  0  0  0  0  0  0  0  0  0  0
    8.1699    2.6275   -2.3636 H   0  0  0  0  0  0  0  0  0  0  0  0
    8.3370    1.5985   -3.7767 H   0  0  0  0  0  0  0  0  0  0  0  0
    7.8427    0.9819   -0.6330 H   0  0  0  0  0  0  0  0  0  0  0  0
    8.4133   -0.1283   -1.8905 H   0  0  0  0  0  0  0  0  0  0  0  0
    6.9798   -0.5307   -0.9651 H   0  0  0  0  0  0  0  0  0  0  0  0
    5.6187    0.5113   -4.3400 H   0  0  0  0  0  0  0  0  0  0  0  0
    5.6000   -0.7672   -3.1218 H   0  0  0  0  0  0  0  0  0  0  0  0
    7.0781   -0.4354   -4.0286 H   0  0  0  0  0  0  0  0  0  0  0  0
  1  2  1  0  0  0  0
  1 15  1  0  0  0  0
  1 16  1  0  0  0  0
  1 17  1  0  0  0  0
  2  3  2  0  0  0  0
  2  4  1  0  0  0  0
  4  5  2  0  0  0  0
  4 18  1  0  0  0  0
  5  6  1  0  0  0  0
  5 19  1  0  0  0  0
  6  7  2  0  0  0  0
  6 12  1  0  0  0  0
  7  8  1  0  0  0  0
  7  9  1  0  0  0  0
  8 20  1  0  0  0  0
  8 21  1  0  0  0  0
  8 22  1  0  0  0  0
  9 10  1  0  0  0  0
  9 23  1  0  0  0  0
  9 24  1  0  0  0  0
 10 11  1  0  0  0  0
 10 25  1  0  0  0  0
 10 26  1  0  0  0  0
 11 12  1  0  0  0  0
 11 27  1  0  0  0  0
 11 28  1  0  0  0  0
 12 13  1  0  0  0  0
 12 14  1  0  0  0  0
 13 29  1  0  0  0  0
 13 30  1  0  0  0  0
 13 31  1  0  0  0  0
 14 32  1  0  0  0  0
 14 33  1  0  0  0  0
 14 34  1  0  0  0  0
M  END
$$$$
