
 OpenBabel07122215493D

 34 33  0  0  0  0  0  0  0  0999 V2000
    1.0183    0.0996    0.0582 C   0  0  0  0  0  0  0  0  0  0  0  0
    2.5162    0.0779    0.0050 C   0  0  0  0  0  0  0  0  0  0  0  0
    3.1518   -0.3189   -0.9667 O   0  0  0  0  0  0  0  0  0  0  0  0
    3.0623    0.5507    1.1629 O   0  0  0  0  0  0  0  0  0  0  0  0
    4.4933    0.5382    1.1323 C   0  0  0  0  0  0  0  0  0  0  0  0
    5.0645    1.0648    2.4216 C   0  0  0  0  0  0  0  0  0  0  0  0
    6.3917    1.1613    2.6580 C   0  0  0  0  0  0  0  0  0  0  0  0
    7.4153    0.7396    1.6254 C   0  0  0  0  0  0  0  0  0  0  0  0
    6.9064    1.7039    3.9866 C   0  0  0  0  0  0  0  0  0  0  0  0
    8.4333    1.7393    4.0734 C   0  0  0  0  0  0  0  0  0  0  0  0
    8.9822    2.2654    5.3617 C   0  0  0  0  0  0  0  0  0  0  0  0
   10.3059    2.3591    5.5911 C   0  0  0  0  0  0  0  0  0  0  0  0
   11.3435    1.9449    4.5768 C   0  0  0  0  0  0  0  0  0  0  0  0
   10.8265    2.8914    6.8946 C   0  0  0  0  0  0  0  0  0  0  0  0
    0.6228   -0.2866   -0.8876 H   0  0  0  0  0  0  0  0  0  0  0  0
    0.6571    1.1229    0.1838 H   0  0  0  0  0  0  0  0  0  0  0  0
    0.6571   -0.5432    0.8643 H   0  0  0  0  0  0  0  0  0  0  0  0
    4.8371    1.1761    0.3086 H   0  0  0  0  0  0  0  0  0  0  0  0
    4.8371   -0.4939    0.9906 H   0  0  0  0  0  0  0  0  0  0  0  0
    4.3592    1.3778    3.1882 H   0  0  0  0  0  0  0  0  0  0  0  0
    6.9718    0.3625    0.7020 H   0  0  0  0  0  0  0  0  0  0  0  0
    8.0462   -0.0658    2.0146 H   0  0  0  0  0  0  0  0  0  0  0  0
    8.0462    1.5872    1.3396 H   0  0  0  0  0  0  0  0  0  0  0  0
    6.5227    1.0835    4.8071 H   0  0  0  0  0  0  0  0  0  0  0  0
    6.5227    2.7213    4.1382 H   0  0  0  0  0  0  0  0  0  0  0  0
    8.8169    2.3731    3.2638 H   0  0  0  0  0  0  0  0  0  0  0  0
    8.8169    0.7200    3.9389 H   0  0  0  0  0  0  0  0  0  0  0  0
    8.2720    2.5768    6.1241 H   0  0  0  0  0  0  0  0  0  0  0  0
   10.9094    1.5649    3.6462 H   0  0  0  0  0  0  0  0  0  0  0  0
   11.9717    1.1436    4.9761 H   0  0  0  0  0  0  0  0  0  0  0  0
   11.9717    2.7966    4.3011 H   0  0  0  0  0  0  0  0  0  0  0  0
   10.0131    3.1690    7.5743 H   0  0  0  0  0  0  0  0  0  0  0  0
   11.4362    3.7844    6.7262 H   0  0  0  0  0  0  0  0  0  0  0  0
   11.4362    2.1358    7.3994 H   0  0  0  0  0  0  0  0  0  0  0  0
  1  2  1  0  0  0  0
  1 15  1  0  0  0  0
  1 16  1  0  0  0  0
  1 17  1  0  0  0  0
  2  3  2  0  0  0  0
  2  4  1  0  0  0  0
  4  5  1  0  0  0  0
  5  6  1  0  0  0  0
  5 18  1  0  0  0  0
  5 19  1  0  0  0  0
  6  7  2  0  0  0  0
  6 20  1  0  0  0  0
  7  8  1  0  0  0  0
  7  9  1  0  0  0  0
  8 21  1  0  0  0  0
  8 22  1  0  0  0  0
  8 23  1  0  0  0  0
  9 10  1  0  0  0  0
  9 24  1  0  0  0  0
  9 25  1  0  0  0  0
 10 11  1  0  0  0  0
 10 26  1  0  0  0  0
 10 27  1  0  0  0  0
 11 12  2  0  0  0  0
 11 28  1  0  0  0  0
 12 13  1  0  0  0  0
 12 14  1  0  0  0  0
 13 29  1  0  0  0  0
 13 30  1  0  0  0  0
 13 31  1  0  0  0  0
 14 32  1  0  0  0  0
 14 33  1  0  0  0  0
 14 34  1  0  0  0  0
M  END
$$$$
