
 OpenBabel07122215493D

 42 42  0  0  0  0  0  0  0  0999 V2000
    0.7495    0.1017    0.0881 C   0  0  0  0  0  0  0  0  0  0  0  0
    2.2461    0.1869    0.0160 C   0  0  0  0  0  0  0  0  0  0  0  0
    2.6835    0.8994   -1.2711 C   0  0  0  0  0  0  0  0  0  0  0  0
    4.1862    0.8661   -1.2501 C   0  0  0  0  0  0  0  0  0  0  0  0
    4.9619    1.3061   -2.4633 C   0  0  0  0  0  0  0  0  0  0  0  0
    6.4988    1.3072   -2.4016 C   0  0  0  0  0  0  0  0  0  0  0  0
    7.2589    0.7290   -1.4077 C   0  0  0  0  0  0  0  0  0  0  0  0
    6.8016   -0.0900   -0.2763 C   0  0  0  0  0  0  0  0  0  0  0  0
    7.0491    0.2857    1.0505 C   0  0  0  0  0  0  0  0  0  0  0  0
    6.4214   -0.3988    2.0972 C   0  0  0  0  0  0  0  0  0  0  0  0
    5.4391   -1.3483    1.8300 C   0  0  0  0  0  0  0  0  0  0  0  0
    5.2365   -1.7620    0.5184 C   0  0  0  0  0  0  0  0  0  0  0  0
    6.0230   -1.2298   -0.5052 C   0  0  0  0  0  0  0  0  0  0  0  0
    7.1940    1.9579   -3.6263 C   0  0  0  0  0  0  0  0  0  0  0  0
    6.8855    3.3476   -3.7554 O   0  0  0  0  0  0  0  0  0  0  0  0
    5.6220    3.6574   -4.3147 C   0  0  0  0  0  0  0  0  0  0  0  0
    8.6215    1.8169   -3.4920 O   0  0  0  0  0  0  0  0  0  0  0  0
    9.3547    2.3399   -4.5886 C   0  0  0  0  0  0  0  0  0  0  0  0
    0.4474   -0.3870    1.0172 H   0  0  0  0  0  0  0  0  0  0  0  0
    0.3793   -0.4885   -0.7551 H   0  0  0  0  0  0  0  0  0  0  0  0
    0.3169    1.1027    0.0448 H   0  0  0  0  0  0  0  0  0  0  0  0
    2.6396   -0.8371    0.0367 H   0  0  0  0  0  0  0  0  0  0  0  0
    2.6573    0.6935    0.8997 H   0  0  0  0  0  0  0  0  0  0  0  0
    2.2979    1.9194   -1.3299 H   0  0  0  0  0  0  0  0  0  0  0  0
    2.3274    0.3356   -2.1415 H   0  0  0  0  0  0  0  0  0  0  0  0
    4.3203   -0.1926   -1.2100 H   0  0  0  0  0  0  0  0  0  0  0  0
    4.5545    1.3827   -0.3551 H   0  0  0  0  0  0  0  0  0  0  0  0
    4.5895    2.3105   -2.5560 H   0  0  0  0  0  0  0  0  0  0  0  0
    4.6406    0.7394   -3.3465 H   0  0  0  0  0  0  0  0  0  0  0  0
    8.3383    0.8273   -1.4381 H   0  0  0  0  0  0  0  0  0  0  0  0
    7.6898    1.1329    1.2728 H   0  0  0  0  0  0  0  0  0  0  0  0
    6.6616   -0.1547    3.1296 H   0  0  0  0  0  0  0  0  0  0  0  0
    4.8249   -1.7555    2.6266 H   0  0  0  0  0  0  0  0  0  0  0  0
    4.4010   -2.4140    0.2728 H   0  0  0  0  0  0  0  0  0  0  0  0
    5.8180   -1.5335   -1.5351 H   0  0  0  0  0  0  0  0  0  0  0  0
    6.9068    1.4039   -4.5328 H   0  0  0  0  0  0  0  0  0  0  0  0
    5.6255    4.6832   -4.6841 H   0  0  0  0  0  0  0  0  0  0  0  0
    4.8689    3.6987   -3.5360 H   0  0  0  0  0  0  0  0  0  0  0  0
    5.3246    2.9692   -5.1122 H   0  0  0  0  0  0  0  0  0  0  0  0
   10.4227    2.2142   -4.3799 H   0  0  0  0  0  0  0  0  0  0  0  0
    9.1672    3.4095   -4.7190 H   0  0  0  0  0  0  0  0  0  0  0  0
    9.1182    1.7966   -5.5077 H   0  0  0  0  0  0  0  0  0  0  0  0
  1  2  1  0  0  0  0
  1 19  1  0  0  0  0
  1 20  1  0  0  0  0
  1 21  1  0  0  0  0
  2  3  1  0  0  0  0
  2 22  1  0  0  0  0
  2 23  1  0  0  0  0
  3  4  1  0  0  0  0
  3 24  1  0  0  0  0
  3 25  1  0  0  0  0
  4  5  1  0  0  0  0
  4 26  1  0  0  0  0
  4 27  1  0  0  0  0
  5  6  1  0  0  0  0
  5 28  1  0  0  0  0
  5 29  1  0  0  0  0
  6  7  2  0  0  0  0
  6 14  1  0  0  0  0
  7  8  1  0  0  0  0
  7 30  1  0  0  0  0
  8  9  2  0  0  0  0
  8 13  1  0  0  0  0
  9 10  1  0  0  0  0
  9 31  1  0  0  0  0
 10 11  2  0  0  0  0
 10 32  1  0  0  0  0
 11 12  1  0  0  0  0
 11 33  1  0  0  0  0
 12 13  2  0  0  0  0
 12 34  1  0  0  0  0
 13 35  1  0  0  0  0
 14 15  1  0  0  0  0
 14 17  1  0  0  0  0
 14 36  1  0  0  0  0
 15 16  1  0  0  0  0
 16 37  1  0  0  0  0
 16 38  1  0  0  0  0
 16 39  1  0  0  0  0
 17 18  1  0  0  0  0
 18 40  1  0  0  0  0
 18 41  1  0  0  0  0
 18 42  1  0  0  0  0
M  END
$$$$
