
 OpenBabel07122215493D

 29 30  0  0  0  0  0  0  0  0999 V2000
    1.0273   -0.0422   -0.0163 C   0  0  0  0  0  0  0  0  0  0  0  0
    2.5549   -0.0383   -0.0973 C   0  0  0  0  0  0  0  0  0  0  0  0
    3.0784   -0.0766   -1.5670 C   0  0  0  0  0  0  0  0  0  0  0  0
    2.5229    1.1618   -2.2793 C   0  0  0  0  0  0  0  0  0  0  0  0
    2.7811    2.3202   -1.9443 O   0  0  0  0  0  0  0  0  0  0  0  0
    1.6422    0.9667   -3.2991 N   0  0  0  0  0  0  0  0  0  0  0  0
    1.1981   -0.2215   -3.7794 C   0  0  0  0  0  0  0  0  0  0  0  0
    0.3830   -0.2822   -4.6859 O   0  0  0  0  0  0  0  0  0  0  0  0
    1.6987   -1.3399   -3.1985 N   0  0  0  0  0  0  0  0  0  0  0  0
    2.5546   -1.3978   -2.1427 C   0  0  0  0  0  0  0  0  0  0  0  0
    2.8498   -2.5062   -1.6875 O   0  0  0  0  0  0  0  0  0  0  0  0
    4.6188   -0.0313   -1.5932 C   0  0  0  0  0  0  0  0  0  0  0  0
    5.3843   -1.0544   -2.1795 C   0  0  0  0  0  0  0  0  0  0  0  0
    6.7714   -1.0645   -2.0732 C   0  0  0  0  0  0  0  0  0  0  0  0
    7.4302    0.0117   -1.4930 C   0  0  0  0  0  0  0  0  0  0  0  0
    6.7004    1.0743   -0.9716 C   0  0  0  0  0  0  0  0  0  0  0  0
    5.3083    1.0437   -1.0029 C   0  0  0  0  0  0  0  0  0  0  0  0
    0.6972   -0.0203    1.0248 H   0  0  0  0  0  0  0  0  0  0  0  0
    0.6044   -0.9376   -0.4814 H   0  0  0  0  0  0  0  0  0  0  0  0
    0.6041    0.8331   -0.5184 H   0  0  0  0  0  0  0  0  0  0  0  0
    2.9397   -0.9007    0.4649 H   0  0  0  0  0  0  0  0  0  0  0  0
    2.9163    0.8533    0.4303 H   0  0  0  0  0  0  0  0  0  0  0  0
    1.2634    1.8013   -3.7237 H   0  0  0  0  0  0  0  0  0  0  0  0
    1.3599   -2.2259   -3.5458 H   0  0  0  0  0  0  0  0  0  0  0  0
    4.9306   -1.8902   -2.7069 H   0  0  0  0  0  0  0  0  0  0  0  0
    7.3273   -1.9247   -2.4357 H   0  0  0  0  0  0  0  0  0  0  0  0
    8.5141    0.0217   -1.4518 H   0  0  0  0  0  0  0  0  0  0  0  0
    7.2084    1.9220   -0.5209 H   0  0  0  0  0  0  0  0  0  0  0  0
    4.7687    1.8832   -0.5657 H   0  0  0  0  0  0  0  0  0  0  0  0
  1  2  1  0  0  0  0
  1 18  1  0  0  0  0
  1 19  1  0  0  0  0
  1 20  1  0  0  0  0
  2  3  1  0  0  0  0
  2 21  1  0  0  0  0
  2 22  1  0  0  0  0
  3  4  1  0  0  0  0
  3 10  1  0  0  0  0
  3 12  1  0  0  0  0
  4  5  2  0  0  0  0
  4  6  1  0  0  0  0
  6  7  1  0  0  0  0
  6 23  1  0  0  0  0
  7  8  2  0  0  0  0
  7  9  1  0  0  0  0
  9 10  1  0  0  0  0
  9 24  1  0  0  0  0
 10 11  2  0  0  0  0
 12 13  1  0  0  0  0
 12 17  2  0  0  0  0
 13 14  2  0  0  0  0
 13 25  1  0  0  0  0
 14 15  1  0  0  0  0
 14 26  1  0  0  0  0
 15 16  2  0  0  0  0
 15 27  1  0  0  0  0
 16 17  1  0  0  0  0
 16 28  1  0  0  0  0
 17 29  1  0  0  0  0
M  END
$$$$
