
 OpenBabel07122215493D

 23 23  0  0  0  0  0  0  0  0999 V2000
    1.0618   -0.0430   -0.0472 C   0  0  0  0  0  0  0  0  0  0  0  0
    2.5973   -0.0078   -0.0900 C   0  0  0  0  0  0  0  0  0  0  0  0
    3.1049    1.1524   -0.9621 C   0  0  0  0  0  0  0  0  0  0  0  0
    2.6588    1.0653   -2.3925 C   0  0  0  0  0  0  0  0  0  0  0  0
    2.9204    1.9427   -3.2173 O   0  0  0  0  0  0  0  0  0  0  0  0
    3.1050    0.0998    1.3429 C   0  0  0  0  0  0  0  0  0  0  0  0
    3.3538   -1.0546    2.0996 C   0  0  0  0  0  0  0  0  0  0  0  0
    3.6454   -0.9529    3.4633 C   0  0  0  0  0  0  0  0  0  0  0  0
    3.7691    0.2983    4.0664 C   0  0  0  0  0  0  0  0  0  0  0  0
    3.5656    1.4505    3.3187 C   0  0  0  0  0  0  0  0  0  0  0  0
    3.2225    1.3494    1.9747 C   0  0  0  0  0  0  0  0  0  0  0  0
    0.6279   -0.1504   -1.0452 H   0  0  0  0  0  0  0  0  0  0  0  0
    0.6591    0.8767    0.3924 H   0  0  0  0  0  0  0  0  0  0  0  0
    0.6998   -0.8853    0.5530 H   0  0  0  0  0  0  0  0  0  0  0  0
    2.9556   -0.9502   -0.5285 H   0  0  0  0  0  0  0  0  0  0  0  0
    4.2012    1.1777   -0.9481 H   0  0  0  0  0  0  0  0  0  0  0  0
    2.7306    2.1133   -0.5940 H   0  0  0  0  0  0  0  0  0  0  0  0
    2.0635    0.1882   -2.6841 H   0  0  0  0  0  0  0  0  0  0  0  0
    3.2982   -2.0419    1.6455 H   0  0  0  0  0  0  0  0  0  0  0  0
    3.7589   -1.8515    4.0642 H   0  0  0  0  0  0  0  0  0  0  0  0
    4.0188    0.3783    5.1201 H   0  0  0  0  0  0  0  0  0  0  0  0
    3.6438    2.4321    3.7774 H   0  0  0  0  0  0  0  0  0  0  0  0
    3.0274    2.2741    1.4407 H   0  0  0  0  0  0  0  0  0  0  0  0
  1  2  1  0  0  0  0
  1 12  1  0  0  0  0
  1 13  1  0  0  0  0
  1 14  1  0  0  0  0
  2  3  1  0  0  0  0
  2  6  1  0  0  0  0
  2 15  1  0  0  0  0
  3  4  1  0  0  0  0
  3 16  1  0  0  0  0
  3 17  1  0  0  0  0
  4  5  2  0  0  0  0
  4 18  1  0  0  0  0
  6  7  2  0  0  0  0
  6 11  1  0  0  0  0
  7  8  1  0  0  0  0
  7 19  1  0  0  0  0
  8  9  2  0  0  0  0
  8 20  1  0  0  0  0
  9 10  1  0  0  0  0
  9 21  1  0  0  0  0
 10 11  2  0  0  0  0
 10 22  1  0  0  0  0
 11 23  1  0  0  0  0
M  END
$$$$
