
 OpenBabel07122215493D

 32 31  0  0  0  0  0  0  0  0999 V2000
    1.0124   -0.0485   -0.0677 O   0  0  0  0  0  0  0  0  0  0  0  0
    2.3588   -0.1188    0.0000 C   0  0  0  0  0  0  0  0  0  0  0  0
    2.9228   -0.9014    0.7536 O   0  0  0  0  0  0  0  0  0  0  0  0
    3.0695    0.8426   -0.9257 C   0  0  0  0  0  0  0  0  0  0  0  0
    4.5822    0.6836   -0.7726 C   0  0  0  0  0  0  0  0  0  0  0  0
    5.3565    1.6267   -1.6806 C   0  0  0  0  0  0  0  0  0  0  0  0
    6.8562    1.4273   -1.4887 C   0  0  0  0  0  0  0  0  0  0  0  0
    7.6337    2.3674   -2.3938 C   0  0  0  0  0  0  0  0  0  0  0  0
    9.1325    2.1728   -2.2065 C   0  0  0  0  0  0  0  0  0  0  0  0
    9.8818    3.1253   -3.1237 C   0  0  0  0  0  0  0  0  0  0  0  0
   11.3872    2.9800   -2.9837 C   0  0  0  0  0  0  0  0  0  0  0  0
   12.2075    3.8951   -3.8649 C   0  0  0  0  0  0  0  0  0  0  0  0
   11.5377    4.7372   -4.6757 O   0  0  0  0  0  0  0  0  0  0  0  0
   13.4324    3.8782   -3.8486 O   0  0  0  0  0  0  0  0  0  0  0  0
    0.6577    0.6054   -0.6973 H   0  0  0  0  0  0  0  0  0  0  0  0
    2.7778    1.8682   -0.6738 H   0  0  0  0  0  0  0  0  0  0  0  0
    2.7778    0.6296   -1.9601 H   0  0  0  0  0  0  0  0  0  0  0  0
    4.8685   -0.3521   -0.9969 H   0  0  0  0  0  0  0  0  0  0  0  0
    4.8685    0.8686    0.2709 H   0  0  0  0  0  0  0  0  0  0  0  0
    5.0909    2.6662   -1.4547 H   0  0  0  0  0  0  0  0  0  0  0  0
    5.0909    1.4402   -2.7280 H   0  0  0  0  0  0  0  0  0  0  0  0
    7.1290    0.3889   -1.7143 H   0  0  0  0  0  0  0  0  0  0  0  0
    7.1290    1.6134   -0.4425 H   0  0  0  0  0  0  0  0  0  0  0  0
    7.3632    3.4069   -2.1697 H   0  0  0  0  0  0  0  0  0  0  0  0
    7.3632    2.1827   -3.4411 H   0  0  0  0  0  0  0  0  0  0  0  0
    9.4069    1.1360   -2.4353 H   0  0  0  0  0  0  0  0  0  0  0  0
    9.4069    2.3623   -1.1618 H   0  0  0  0  0  0  0  0  0  0  0  0
    9.5873    4.1553   -2.8867 H   0  0  0  0  0  0  0  0  0  0  0  0
    9.5873    2.9275   -4.1618 H   0  0  0  0  0  0  0  0  0  0  0  0
   11.6732    1.9486   -3.2231 H   0  0  0  0  0  0  0  0  0  0  0  0
   11.6732    3.1801   -1.9440 H   0  0  0  0  0  0  0  0  0  0  0  0
   10.5653    4.7120   -4.6514 H   0  0  0  0  0  0  0  0  0  0  0  0
  1  2  1  0  0  0  0
  1 15  1  0  0  0  0
  2  3  2  0  0  0  0
  2  4  1  0  0  0  0
  4  5  1  0  0  0  0
  4 16  1  0  0  0  0
  4 17  1  0  0  0  0
  5  6  1  0  0  0  0
  5 18  1  0  0  0  0
  5 19  1  0  0  0  0
  6  7  1  0  0  0  0
  6 20  1  0  0  0  0
  6 21  1  0  0  0  0
  7  8  1  0  0  0  0
  7 22  1  0  0  0  0
  7 23  1  0  0  0  0
  8  9  1  0  0  0  0
  8 24  1  0  0  0  0
  8 25  1  0  0  0  0
  9 10  1  0  0  0  0
  9 26  1  0  0  0  0
  9 27  1  0  0  0  0
 10 11  1  0  0  0  0
 10 28  1  0  0  0  0
 10 29  1  0  0  0  0
 11 12  1  0  0  0  0
 11 30  1  0  0  0  0
 11 31  1  0  0  0  0
 12 13  1  0  0  0  0
 12 14  2  0  0  0  0
 13 32  1  0  0  0  0
M  END
$$$$
