
 OpenBabel07122215493D

 27 28  0  0  1  0  0  0  0  0999 V2000
    0.9222    0.1816   -0.0899 C   0  0  0  0  0  0  0  0  0  0  0  0
    2.4444    0.0311   -0.0641 C   0  0  0  0  0  0  0  0  0  0  0  0
    2.7280   -1.4726   -0.0417 C   0  0  0  0  0  0  0  0  0  0  0  0
    3.1983    0.7856   -1.2137 C   0  0  2  0  0  0  0  0  0  0  0  0
    4.6696    0.3208   -1.2921 C   0  0  0  0  0  0  0  0  0  0  0  0
    5.2832    0.8971   -0.0013 C   0  0  0  0  0  0  0  0  0  0  0  0
    4.1416    1.7487    0.5894 C   0  0  1  0  0  0  0  0  0  0  0  0
    4.5915    2.8264    1.5479 C   0  0  0  0  0  0  0  0  0  0  0  0
    3.4081    2.2161   -0.6687 C   0  0  0  0  0  0  0  0  0  0  0  0
    3.0212    0.8416    1.1005 C   0  0  0  0  0  0  0  0  0  0  0  0
    2.5144    0.9203    2.2176 O   0  0  0  0  0  0  0  0  0  0  0  0
    0.5885    1.2185   -0.0133 H   0  0  0  0  0  0  0  0  0  0  0  0
    0.4860   -0.3575    0.7637 H   0  0  0  0  0  0  0  0  0  0  0  0
    0.5029   -0.2638   -0.9982 H   0  0  0  0  0  0  0  0  0  0  0  0
    3.7828   -1.7340    0.0593 H   0  0  0  0  0  0  0  0  0  0  0  0
    2.3543   -1.9233   -0.9711 H   0  0  0  0  0  0  0  0  0  0  0  0
    2.2220   -1.9638    0.7950 H   0  0  0  0  0  0  0  0  0  0  0  0
    2.6806    0.7498   -2.1746 H   0  0  0  0  0  0  0  0  0  0  0  0
    5.1629    0.7488   -2.1720 H   0  0  0  0  0  0  0  0  0  0  0  0
    4.8030   -0.7599   -1.3730 H   0  0  0  0  0  0  0  0  0  0  0  0
    6.1513    1.5144   -0.2630 H   0  0  0  0  0  0  0  0  0  0  0  0
    5.6179    0.1090    0.6816 H   0  0  0  0  0  0  0  0  0  0  0  0
    5.2915    3.5182    1.0675 H   0  0  0  0  0  0  0  0  0  0  0  0
    5.0943    2.3913    2.4196 H   0  0  0  0  0  0  0  0  0  0  0  0
    3.7431    3.4105    1.9192 H   0  0  0  0  0  0  0  0  0  0  0  0
    4.0375    2.8389   -1.3154 H   0  0  0  0  0  0  0  0  0  0  0  0
    2.4736    2.7459   -0.4563 H   0  0  0  0  0  0  0  0  0  0  0  0
  1  2  1  0  0  0  0
  1 12  1  0  0  0  0
  1 13  1  0  0  0  0
  1 14  1  0  0  0  0
  2  4  1  0  0  0  0
  2 10  1  0  0  0  0
  2  3  1  0  0  0  0
  3 15  1  0  0  0  0
  3 16  1  0  0  0  0
  3 17  1  0  0  0  0
  4  5  1  0  0  0  0
  4  9  1  0  0  0  0
  4 18  1  6  0  0  0
  5  6  1  0  0  0  0
  5 19  1  0  0  0  0
  5 20  1  0  0  0  0
  6  7  1  0  0  0  0
  6 21  1  0  0  0  0
  6 22  1  0  0  0  0
  7  9  1  0  0  0  0
  7 10  1  0  0  0  0
  7  8  1  1  0  0  0
  8 23  1  0  0  0  0
  8 24  1  0  0  0  0
  8 25  1  0  0  0  0
  9 26  1  0  0  0  0
  9 27  1  0  0  0  0
 10 11  2  0  0  0  0
M  END
$$$$
