
 OpenBabel07122215493D

 26 26  0  0  1  0  0  0  0  0999 V2000
    2.5259    0.0463    0.0483 C   0  0  0  0  0  0  0  0  0  0  0  0
    1.0321    0.0728   -0.0629 C   0  0  0  0  0  0  0  0  0  0  0  0
    0.3234    1.2122   -0.2017 C   0  0  0  0  0  0  0  0  0  0  0  0
   -1.1890    1.2425   -0.2116 C   0  0  0  0  0  0  0  0  0  0  0  0
   -1.8047   -0.0403    0.4070 C   0  0  1  0  0  0  0  0  0  0  0  0
   -1.1277   -1.2471   -0.2746 C   0  0  0  0  0  0  0  0  0  0  0  0
    0.3695   -1.2813    0.0377 C   0  0  0  0  0  0  0  0  0  0  0  0
   -1.6845   -0.1110    1.9417 C   0  0  0  0  0  0  0  0  0  0  0  0
   -1.0847    0.8355    2.6944 C   0  0  0  0  0  0  0  0  0  0  0  0
   -2.2290   -1.3403    2.6181 C   0  0  0  0  0  0  0  0  0  0  0  0
    2.9655    1.0468    0.0070 H   0  0  0  0  0  0  0  0  0  0  0  0
    2.9466   -0.5467   -0.7698 H   0  0  0  0  0  0  0  0  0  0  0  0
    2.8241   -0.4150    0.9966 H   0  0  0  0  0  0  0  0  0  0  0  0
    0.8280    2.1741   -0.2335 H   0  0  0  0  0  0  0  0  0  0  0  0
   -1.5260    1.3714   -1.2475 H   0  0  0  0  0  0  0  0  0  0  0  0
   -1.5530    2.1272    0.3263 H   0  0  0  0  0  0  0  0  0  0  0  0
   -2.8743   -0.0549    0.1542 H   0  0  0  0  0  0  0  0  0  0  0  0
   -1.2679   -1.1829   -1.3628 H   0  0  0  0  0  0  0  0  0  0  0  0
   -1.5904   -2.1935    0.0269 H   0  0  0  0  0  0  0  0  0  0  0  0
    0.8585   -1.9881   -0.6418 H   0  0  0  0  0  0  0  0  0  0  0  0
    0.5200   -1.6652    1.0550 H   0  0  0  0  0  0  0  0  0  0  0  0
   -0.9743    0.7324    3.7662 H   0  0  0  0  0  0  0  0  0  0  0  0
   -0.6446    1.7304    2.2715 H   0  0  0  0  0  0  0  0  0  0  0  0
   -2.0630   -1.3091    3.7005 H   0  0  0  0  0  0  0  0  0  0  0  0
   -1.7314   -2.2444    2.2544 H   0  0  0  0  0  0  0  0  0  0  0  0
   -3.3045   -1.4330    2.4446 H   0  0  0  0  0  0  0  0  0  0  0  0
  1  2  1  0  0  0  0
  1 11  1  0  0  0  0
  1 12  1  0  0  0  0
  1 13  1  0  0  0  0
  2  3  2  0  0  0  0
  2  7  1  0  0  0  0
  3  4  1  0  0  0  0
  3 14  1  0  0  0  0
  4  5  1  0  0  0  0
  4 15  1  0  0  0  0
  4 16  1  0  0  0  0
  5  6  1  0  0  0  0
  5  8  1  0  0  0  0
  5 17  1  6  0  0  0
  6  7  1  0  0  0  0
  6 18  1  0  0  0  0
  6 19  1  0  0  0  0
  7 20  1  0  0  0  0
  7 21  1  0  0  0  0
  8  9  2  0  0  0  0
  8 10  1  0  0  0  0
  9 22  1  0  0  0  0
  9 23  1  0  0  0  0
 10 24  1  0  0  0  0
 10 25  1  0  0  0  0
 10 26  1  0  0  0  0
M  END
$$$$
