
 OpenBabel07122215493D

 27 28  0  0  1  0  0  0  0  0999 V2000
    0.9692   -0.0045   -0.1092 C   0  0  0  0  0  0  0  0  0  0  0  0
    2.4947   -0.0468   -0.0497 C   0  0  0  0  0  0  0  0  0  0  0  0
    3.0018    1.3434    0.3321 C   0  0  0  0  0  0  0  0  0  0  0  0
    3.0578   -1.1722    0.8796 C   0  0  1  0  0  0  0  0  0  0  0  0
    2.3412   -2.5137    0.6061 C   0  0  0  0  0  0  0  0  0  0  0  0
    2.8552   -2.9058   -0.7940 C   0  0  0  0  0  0  0  0  0  0  0  0
    3.8997   -1.8157   -1.1015 C   0  0  2  0  0  0  0  0  0  0  0  0
    4.9356   -2.1844   -2.1340 C   0  0  0  0  0  0  0  0  0  0  0  0
    4.4445   -1.4694    0.2844 C   0  0  0  0  0  0  0  0  0  0  0  0
    3.1066   -0.5359   -1.3649 C   0  0  0  0  0  0  0  0  0  0  0  0
    2.9601   -0.0020   -2.4572 O   0  0  0  0  0  0  0  0  0  0  0  0
    0.5614    0.2327    0.8796 H   0  0  0  0  0  0  0  0  0  0  0  0
    0.5224   -0.9414   -0.4498 H   0  0  0  0  0  0  0  0  0  0  0  0
    0.6248    0.7522   -0.8205 H   0  0  0  0  0  0  0  0  0  0  0  0
    2.6129    1.6307    1.3162 H   0  0  0  0  0  0  0  0  0  0  0  0
    2.6542    2.0907   -0.3912 H   0  0  0  0  0  0  0  0  0  0  0  0
    4.0921    1.4117    0.3667 H   0  0  0  0  0  0  0  0  0  0  0  0
    3.0783   -0.8998    1.9377 H   0  0  0  0  0  0  0  0  0  0  0  0
    1.2518   -2.4517    0.6447 H   0  0  0  0  0  0  0  0  0  0  0  0
    2.6245   -3.2690    1.3464 H   0  0  0  0  0  0  0  0  0  0  0  0
    2.0427   -2.9091   -1.5298 H   0  0  0  0  0  0  0  0  0  0  0  0
    3.2974   -3.9068   -0.7622 H   0  0  0  0  0  0  0  0  0  0  0  0
    5.4820   -3.0860   -1.8351 H   0  0  0  0  0  0  0  0  0  0  0  0
    5.6666   -1.3802   -2.2700 H   0  0  0  0  0  0  0  0  0  0  0  0
    4.4733   -2.3778   -3.1077 H   0  0  0  0  0  0  0  0  0  0  0  0
    5.1171   -0.6051    0.2822 H   0  0  0  0  0  0  0  0  0  0  0  0
    4.9515   -2.3132    0.7662 H   0  0  0  0  0  0  0  0  0  0  0  0
  1  2  1  0  0  0  0
  1 12  1  0  0  0  0
  1 13  1  0  0  0  0
  1 14  1  0  0  0  0
  2  3  1  0  0  0  0
  2  4  1  0  0  0  0
  2 10  1  0  0  0  0
  3 15  1  0  0  0  0
  3 16  1  0  0  0  0
  3 17  1  0  0  0  0
  4  5  1  0  0  0  0
  4  9  1  0  0  0  0
  4 18  1  1  0  0  0
  5  6  1  0  0  0  0
  5 19  1  0  0  0  0
  5 20  1  0  0  0  0
  6  7  1  0  0  0  0
  6 21  1  0  0  0  0
  6 22  1  0  0  0  0
  7  8  1  6  0  0  0
  7  9  1  0  0  0  0
  7 10  1  0  0  0  0
  8 23  1  0  0  0  0
  8 24  1  0  0  0  0
  8 25  1  0  0  0  0
  9 26  1  0  0  0  0
  9 27  1  0  0  0  0
 10 11  2  0  0  0  0
M  END
$$$$
