
 OpenBabel07122215493D

 25 24  0  0  0  0  0  0  0  0999 V2000
    0.9290   -0.0806   -0.0097 C   0  0  0  0  0  0  0  0  0  0  0  0
    2.4458   -0.0808   -0.0179 C   0  0  0  0  0  0  0  0  0  0  0  0
    2.9719   -0.1178   -1.4470 C   0  0  0  0  0  0  0  0  0  0  0  0
    4.4944   -0.1181   -1.4595 C   0  0  0  0  0  0  0  0  0  0  0  0
    5.0136   -0.1551   -2.8905 C   0  0  0  0  0  0  0  0  0  0  0  0
    6.5368   -0.1556   -2.9094 C   0  0  0  0  0  0  0  0  0  0  0  0
    7.0507   -0.1926   -4.3411 C   0  0  0  0  0  0  0  0  0  0  0  0
    8.5536   -0.1935   -4.3743 C   0  0  0  0  0  0  0  0  0  0  0  0
    9.1927   -0.2206   -5.4234 O   0  0  0  0  0  0  0  0  0  0  0  0
    0.5551   -0.0540    1.0172 H   0  0  0  0  0  0  0  0  0  0  0  0
    0.5392   -0.9806   -0.4960 H   0  0  0  0  0  0  0  0  0  0  0  0
    0.5392    0.7930   -0.5419 H   0  0  0  0  0  0  0  0  0  0  0  0
    2.8158   -0.9497    0.5388 H   0  0  0  0  0  0  0  0  0  0  0  0
    2.8158    0.8157    0.4931 H   0  0  0  0  0  0  0  0  0  0  0  0
    2.5979    0.7507   -2.0034 H   0  0  0  0  0  0  0  0  0  0  0  0
    2.5979   -1.0138   -1.9578 H   0  0  0  0  0  0  0  0  0  0  0  0
    4.8699   -0.9872   -0.9058 H   0  0  0  0  0  0  0  0  0  0  0  0
    4.8699    0.7785   -0.9514 H   0  0  0  0  0  0  0  0  0  0  0  0
    4.6354    0.7135   -3.4435 H   0  0  0  0  0  0  0  0  0  0  0  0
    4.6354   -1.0512   -3.3979 H   0  0  0  0  0  0  0  0  0  0  0  0
    6.9158   -1.0216   -2.3520 H   0  0  0  0  0  0  0  0  0  0  0  0
    6.9158    0.7380   -2.3975 H   0  0  0  0  0  0  0  0  0  0  0  0
    6.6959    0.6856   -4.8906 H   0  0  0  0  0  0  0  0  0  0  0  0
    6.6959   -1.0981   -4.8445 H   0  0  0  0  0  0  0  0  0  0  0  0
    9.0725   -0.1683   -3.4015 H   0  0  0  0  0  0  0  0  0  0  0  0
  1  2  1  0  0  0  0
  1 10  1  0  0  0  0
  1 11  1  0  0  0  0
  1 12  1  0  0  0  0
  2  3  1  0  0  0  0
  2 13  1  0  0  0  0
  2 14  1  0  0  0  0
  3  4  1  0  0  0  0
  3 15  1  0  0  0  0
  3 16  1  0  0  0  0
  4  5  1  0  0  0  0
  4 17  1  0  0  0  0
  4 18  1  0  0  0  0
  5  6  1  0  0  0  0
  5 19  1  0  0  0  0
  5 20  1  0  0  0  0
  6  7  1  0  0  0  0
  6 21  1  0  0  0  0
  6 22  1  0  0  0  0
  7  8  1  0  0  0  0
  7 23  1  0  0  0  0
  7 24  1  0  0  0  0
  8  9  2  0  0  0  0
  8 25  1  0  0  0  0
M  END
$$$$
