
 OpenBabel07122215493D

 19 18  0  0  0  0  0  0  0  0999 V2000
    1.1344   -0.0555    0.0016 O   0  5  0  0  0  0  0  0  0  0  0  0
    2.3885    0.0661    0.1185 C   0  0  0  0  0  0  0  0  0  0  0  0
    3.0494    0.8401    0.8623 O   0  0  0  0  0  0  0  0  0  0  0  0
    3.1930   -0.8746   -0.7855 C   0  0  0  0  0  0  0  0  0  0  0  0
    4.6989   -0.7127   -0.6300 C   0  0  0  0  0  0  0  0  0  0  0  0
    5.4680   -1.6614   -1.5416 C   0  0  0  0  0  0  0  0  0  0  0  0
    6.9736   -1.4741   -1.3616 C   0  0  0  0  0  0  0  0  0  0  0  0
    7.7332   -2.4194   -2.2701 C   0  0  0  0  0  0  0  0  0  0  0  0
    9.6497   -2.1759   -2.0361 Br  0  0  0  0  0  0  0  0  0  0  0  0
    2.9037   -0.6817   -1.8261 H   0  0  0  0  0  0  0  0  0  0  0  0
    2.9037   -1.9067   -0.5514 H   0  0  0  0  0  0  0  0  0  0  0  0
    4.9838   -0.9006    0.4127 H   0  0  0  0  0  0  0  0  0  0  0  0
    4.9838    0.3217   -0.8591 H   0  0  0  0  0  0  0  0  0  0  0  0
    5.1941   -1.4749   -2.5872 H   0  0  0  0  0  0  0  0  0  0  0  0
    5.1941   -2.6987   -1.3137 H   0  0  0  0  0  0  0  0  0  0  0  0
    7.2451   -1.6542   -0.3136 H   0  0  0  0  0  0  0  0  0  0  0  0
    7.2451   -0.4341   -1.5833 H   0  0  0  0  0  0  0  0  0  0  0  0
    7.5181   -2.2283   -3.3249 H   0  0  0  0  0  0  0  0  0  0  0  0
    7.5181   -3.4658   -2.0372 H   0  0  0  0  0  0  0  0  0  0  0  0
  1  2  1  0  0  0  0
  2  3  2  0  0  0  0
  2  4  1  0  0  0  0
  4  5  1  0  0  0  0
  4 10  1  0  0  0  0
  4 11  1  0  0  0  0
  5  6  1  0  0  0  0
  5 12  1  0  0  0  0
  5 13  1  0  0  0  0
  6  7  1  0  0  0  0
  6 14  1  0  0  0  0
  6 15  1  0  0  0  0
  7  8  1  0  0  0  0
  7 16  1  0  0  0  0
  7 17  1  0  0  0  0
  8  9  1  0  0  0  0
  8 18  1  0  0  0  0
  8 19  1  0  0  0  0
M  CHG  1   1  -1
M  END
$$$$
