
 OpenBabel07122215493D

 32 32  0  0  0  0  0  0  0  0999 V2000
    0.9054    0.0631   -0.0280 C   0  0  0  0  0  0  0  0  0  0  0  0
    2.4398    0.0599   -0.0085 C   0  0  0  0  0  0  0  0  0  0  0  0
    2.9374    1.3580    0.6736 C   0  0  0  0  0  0  0  0  0  0  0  0
    2.9541   -1.1174    0.8436 C   0  0  0  0  0  0  0  0  0  0  0  0
    2.9588   -0.0522   -1.4415 C   0  0  0  0  0  0  0  0  0  0  0  0
    3.1136   -1.2924   -2.0853 C   0  0  0  0  0  0  0  0  0  0  0  0
    3.7262   -1.3839   -3.3361 C   0  0  0  0  0  0  0  0  0  0  0  0
    4.0943   -0.2247   -4.0216 C   0  0  0  0  0  0  0  0  0  0  0  0
    4.6103   -0.3212   -5.4340 C   0  0  0  0  0  0  0  0  0  0  0  0
    4.8658    1.0480   -6.0567 C   0  0  0  0  0  0  0  0  0  0  0  0
    5.3351    0.9593   -7.4688 C   0  0  0  0  0  0  0  0  0  0  0  0
    5.6028    1.9660   -8.1296 O   0  0  0  0  0  0  0  0  0  0  0  0
    3.9042    1.0101   -3.3970 C   0  0  0  0  0  0  0  0  0  0  0  0
    3.3331    1.0956   -2.1419 C   0  0  0  0  0  0  0  0  0  0  0  0
    0.5030    0.1498    0.9872 H   0  0  0  0  0  0  0  0  0  0  0  0
    0.5067   -0.8570   -0.4698 H   0  0  0  0  0  0  0  0  0  0  0  0
    0.5161    0.9042   -0.6145 H   0  0  0  0  0  0  0  0  0  0  0  0
    2.6146    1.4156    1.7165 H   0  0  0  0  0  0  0  0  0  0  0  0
    2.5492    2.2592    0.1848 H   0  0  0  0  0  0  0  0  0  0  0  0
    4.0338    1.4138    0.6529 H   0  0  0  0  0  0  0  0  0  0  0  0
    2.6240   -1.0279    1.8827 H   0  0  0  0  0  0  0  0  0  0  0  0
    4.0509   -1.1520    0.8361 H   0  0  0  0  0  0  0  0  0  0  0  0
    2.5915   -2.0848    0.4812 H   0  0  0  0  0  0  0  0  0  0  0  0
    2.7656   -2.2128   -1.6238 H   0  0  0  0  0  0  0  0  0  0  0  0
    3.9036   -2.3668   -3.7672 H   0  0  0  0  0  0  0  0  0  0  0  0
    3.8562   -0.8515   -6.0307 H   0  0  0  0  0  0  0  0  0  0  0  0
    5.5253   -0.9253   -5.4494 H   0  0  0  0  0  0  0  0  0  0  0  0
    5.6347    1.5831   -5.4866 H   0  0  0  0  0  0  0  0  0  0  0  0
    3.9406    1.6390   -6.0587 H   0  0  0  0  0  0  0  0  0  0  0  0
    5.4286   -0.0450   -7.9037 H   0  0  0  0  0  0  0  0  0  0  0  0
    4.1871    1.9511   -3.8581 H   0  0  0  0  0  0  0  0  0  0  0  0
    3.2026    2.0939   -1.7386 H   0  0  0  0  0  0  0  0  0  0  0  0
  1  2  1  0  0  0  0
  1 15  1  0  0  0  0
  1 16  1  0  0  0  0
  1 17  1  0  0  0  0
  2  3  1  0  0  0  0
  2  4  1  0  0  0  0
  2  5  1  0  0  0  0
  3 18  1  0  0  0  0
  3 19  1  0  0  0  0
  3 20  1  0  0  0  0
  4 21  1  0  0  0  0
  4 22  1  0  0  0  0
  4 23  1  0  0  0  0
  5  6  1  0  0  0  0
  5 14  2  0  0  0  0
  6  7  2  0  0  0  0
  6 24  1  0  0  0  0
  7  8  1  0  0  0  0
  7 25  1  0  0  0  0
  8  9  1  0  0  0  0
  8 13  2  0  0  0  0
  9 10  1  0  0  0  0
  9 26  1  0  0  0  0
  9 27  1  0  0  0  0
 10 11  1  0  0  0  0
 10 28  1  0  0  0  0
 10 29  1  0  0  0  0
 11 12  2  0  0  0  0
 11 30  1  0  0  0  0
 13 14  1  0  0  0  0
 13 31  1  0  0  0  0
 14 32  1  0  0  0  0
M  END
$$$$
