
 OpenBabel07122215493D

 34 34  0  0  0  0  0  0  0  0999 V2000
    1.0869   -0.0350    0.0811 C   0  0  0  0  0  0  0  0  0  0  0  0
    2.5801   -0.0290    0.1066 C   0  0  0  0  0  0  0  0  0  0  0  0
    3.2921   -0.6177    1.0810 C   0  0  0  0  0  0  0  0  0  0  0  0
    4.7869   -0.6664    1.0319 C   0  0  0  0  0  0  0  0  0  0  0  0
    5.4132   -0.1029    0.1391 O   0  0  0  0  0  0  0  0  0  0  0  0
    5.4754   -1.4202    2.1465 C   0  0  0  0  0  0  0  0  0  0  0  0
    5.0932   -2.6864    2.4489 C   0  0  0  0  0  0  0  0  0  0  0  0
    4.1393   -3.5297    1.6402 C   0  0  0  0  0  0  0  0  0  0  0  0
    5.6330   -3.4303    3.6529 C   0  0  0  0  0  0  0  0  0  0  0  0
    6.4094   -2.5606    4.6314 C   0  0  0  0  0  0  0  0  0  0  0  0
    7.3623   -1.6577    3.8681 C   0  0  0  0  0  0  0  0  0  0  0  0
    6.6118   -0.6965    2.8982 C   0  0  0  0  0  0  0  0  0  0  0  0
    7.6951   -0.1234    1.9583 C   0  0  0  0  0  0  0  0  0  0  0  0
    6.0117    0.4625    3.7166 C   0  0  0  0  0  0  0  0  0  0  0  0
    0.7212    0.5332   -0.7802 H   0  0  0  0  0  0  0  0  0  0  0  0
    0.6795    0.4263    0.9855 H   0  0  0  0  0  0  0  0  0  0  0  0
    0.7025   -1.0566   -0.0079 H   0  0  0  0  0  0  0  0  0  0  0  0
    3.0902    0.4658   -0.7185 H   0  0  0  0  0  0  0  0  0  0  0  0
    2.7935   -1.1227    1.8997 H   0  0  0  0  0  0  0  0  0  0  0  0
    3.7810   -3.0495    0.7288 H   0  0  0  0  0  0  0  0  0  0  0  0
    3.2695   -3.7975    2.2481 H   0  0  0  0  0  0  0  0  0  0  0  0
    4.6419   -4.4459    1.3159 H   0  0  0  0  0  0  0  0  0  0  0  0
    6.2782   -4.2438    3.2993 H   0  0  0  0  0  0  0  0  0  0  0  0
    4.8011   -3.8914    4.1993 H   0  0  0  0  0  0  0  0  0  0  0  0
    6.9665   -3.1975    5.3282 H   0  0  0  0  0  0  0  0  0  0  0  0
    5.7190   -1.9646    5.2394 H   0  0  0  0  0  0  0  0  0  0  0  0
    8.0620   -2.2931    3.3062 H   0  0  0  0  0  0  0  0  0  0  0  0
    7.9738   -1.0882    4.5798 H   0  0  0  0  0  0  0  0  0  0  0  0
    8.1505   -0.9126    1.3485 H   0  0  0  0  0  0  0  0  0  0  0  0
    8.4972    0.3556    2.5331 H   0  0  0  0  0  0  0  0  0  0  0  0
    7.3049    0.6446    1.2862 H   0  0  0  0  0  0  0  0  0  0  0  0
    5.2519    0.1097    4.4220 H   0  0  0  0  0  0  0  0  0  0  0  0
    5.5400    1.2082    3.0682 H   0  0  0  0  0  0  0  0  0  0  0  0
    6.7874    0.9761    4.2970 H   0  0  0  0  0  0  0  0  0  0  0  0
  1  2  1  0  0  0  0
  1 15  1  0  0  0  0
  1 16  1  0  0  0  0
  1 17  1  0  0  0  0
  2  3  2  0  0  0  0
  2 18  1  0  0  0  0
  3  4  1  0  0  0  0
  3 19  1  0  0  0  0
  4  5  2  0  0  0  0
  4  6  1  0  0  0  0
  6  7  2  0  0  0  0
  6 12  1  0  0  0  0
  7  8  1  0  0  0  0
  7  9  1  0  0  0  0
  8 20  1  0  0  0  0
  8 21  1  0  0  0  0
  8 22  1  0  0  0  0
  9 10  1  0  0  0  0
  9 23  1  0  0  0  0
  9 24  1  0  0  0  0
 10 11  1  0  0  0  0
 10 25  1  0  0  0  0
 10 26  1  0  0  0  0
 11 12  1  0  0  0  0
 11 27  1  0  0  0  0
 11 28  1  0  0  0  0
 12 13  1  0  0  0  0
 12 14  1  0  0  0  0
 13 29  1  0  0  0  0
 13 30  1  0  0  0  0
 13 31  1  0  0  0  0
 14 32  1  0  0  0  0
 14 33  1  0  0  0  0
 14 34  1  0  0  0  0
M  END
$$$$
