
 OpenBabel07122215493D

 21 21  0  0  0  0  0  0  0  0999 V2000
    1.1437    0.0243    0.0376 C   0  0  0  0  0  0  0  0  0  0  0  0
    2.6430   -0.0031    0.1026 C   0  0  0  0  0  0  0  0  0  0  0  0
    3.2746   -0.3119    1.1076 O   0  0  0  0  0  0  0  0  0  0  0  0
    3.1944    0.3559   -1.0878 O   0  0  0  0  0  0  0  0  0  0  0  0
    4.6292    0.3461   -1.0866 C   0  0  0  0  0  0  0  0  0  0  0  0
    5.1429    0.8007   -2.4329 C   0  0  0  0  0  0  0  0  0  0  0  0
    5.7740   -0.0864   -3.3177 C   0  0  0  0  0  0  0  0  0  0  0  0
    6.3196    0.3794   -4.5184 C   0  0  0  0  0  0  0  0  0  0  0  0
    6.1705    1.7163   -4.8830 C   0  0  0  0  0  0  0  0  0  0  0  0
    5.5274    2.6019   -4.0218 C   0  0  0  0  0  0  0  0  0  0  0  0
    5.0274    2.1493   -2.7997 C   0  0  0  0  0  0  0  0  0  0  0  0
    0.7384   -0.2823    1.0078 H   0  0  0  0  0  0  0  0  0  0  0  0
    0.7821   -0.6783   -0.7173 H   0  0  0  0  0  0  0  0  0  0  0  0
    0.7877    1.0357   -0.1740 H   0  0  0  0  0  0  0  0  0  0  0  0
    4.9988   -0.6609   -0.8575 H   0  0  0  0  0  0  0  0  0  0  0  0
    5.0111    1.0355   -0.3216 H   0  0  0  0  0  0  0  0  0  0  0  0
    5.8553   -1.1447   -3.0792 H   0  0  0  0  0  0  0  0  0  0  0  0
    6.8669   -0.2982   -5.1695 H   0  0  0  0  0  0  0  0  0  0  0  0
    6.5526    2.0670   -5.8383 H   0  0  0  0  0  0  0  0  0  0  0  0
    5.4247    3.6487   -4.2949 H   0  0  0  0  0  0  0  0  0  0  0  0
    4.5463    2.8549   -2.1264 H   0  0  0  0  0  0  0  0  0  0  0  0
  1  2  1  0  0  0  0
  1 12  1  0  0  0  0
  1 13  1  0  0  0  0
  1 14  1  0  0  0  0
  2  3  2  0  0  0  0
  2  4  1  0  0  0  0
  4  5  1  0  0  0  0
  5  6  1  0  0  0  0
  5 15  1  0  0  0  0
  5 16  1  0  0  0  0
  6  7  1  0  0  0  0
  6 11  2  0  0  0  0
  7  8  2  0  0  0  0
  7 17  1  0  0  0  0
  8  9  1  0  0  0  0
  8 18  1  0  0  0  0
  9 10  2  0  0  0  0
  9 19  1  0  0  0  0
 10 11  1  0  0  0  0
 10 20  1  0  0  0  0
 11 21  1  0  0  0  0
M  END
$$$$
