
 OpenBabel07122215493D

 26 25  0  0  0  0  0  0  0  0999 V2000
    1.0797   -0.0269   -0.0222 C   0  0  0  0  0  0  0  0  0  0  0  0
    2.5984   -0.0284   -0.0343 C   0  0  0  0  0  0  0  0  0  0  0  0
    3.1287   -0.2054   -1.4554 C   0  0  0  0  0  0  0  0  0  0  0  0
    4.6558   -0.2082   -1.4779 C   0  0  0  0  0  0  0  0  0  0  0  0
    5.1901   -0.3854   -2.9003 C   0  0  0  0  0  0  0  0  0  0  0  0
    6.7175   -0.3885   -2.9248 C   0  0  0  0  0  0  0  0  0  0  0  0
    7.1816   -0.5568   -4.2766 O   0  0  0  0  0  0  0  0  0  0  0  0
    8.5397   -0.5716   -4.3955 C   0  0  0  0  0  0  0  0  0  0  0  0
    9.3274   -0.4555   -3.4634 O   0  0  0  0  0  0  0  0  0  0  0  0
    8.9796   -0.7491   -5.8207 C   0  0  0  0  0  0  0  0  0  0  0  0
    0.7063    0.1001    0.9981 H   0  0  0  0  0  0  0  0  0  0  0  0
    0.6874   -0.9700   -0.4161 H   0  0  0  0  0  0  0  0  0  0  0  0
    0.6874    0.7907   -0.6354 H   0  0  0  0  0  0  0  0  0  0  0  0
    2.9664   -0.8382    0.6067 H   0  0  0  0  0  0  0  0  0  0  0  0
    2.9664    0.9138    0.3885 H   0  0  0  0  0  0  0  0  0  0  0  0
    2.7514    0.6048   -2.0912 H   0  0  0  0  0  0  0  0  0  0  0  0
    2.7514   -1.1469   -1.8731 H   0  0  0  0  0  0  0  0  0  0  0  0
    5.0281   -1.0177   -0.8380 H   0  0  0  0  0  0  0  0  0  0  0  0
    5.0281    0.7335   -1.0561 H   0  0  0  0  0  0  0  0  0  0  0  0
    4.8127    0.4172   -3.5459 H   0  0  0  0  0  0  0  0  0  0  0  0
    4.8127   -1.3218   -3.3293 H   0  0  0  0  0  0  0  0  0  0  0  0
    7.0914   -1.2134   -2.3068 H   0  0  0  0  0  0  0  0  0  0  0  0
    7.0914    0.5629   -2.5281 H   0  0  0  0  0  0  0  0  0  0  0  0
    8.1268   -0.8337   -6.4996 H   0  0  0  0  0  0  0  0  0  0  0  0
    9.5783   -1.6609   -5.9033 H   0  0  0  0  0  0  0  0  0  0  0  0
    9.5783    0.1145   -6.1244 H   0  0  0  0  0  0  0  0  0  0  0  0
  1  2  1  0  0  0  0
  1 11  1  0  0  0  0
  1 12  1  0  0  0  0
  1 13  1  0  0  0  0
  2  3  1  0  0  0  0
  2 14  1  0  0  0  0
  2 15  1  0  0  0  0
  3  4  1  0  0  0  0
  3 16  1  0  0  0  0
  3 17  1  0  0  0  0
  4  5  1  0  0  0  0
  4 18  1  0  0  0  0
  4 19  1  0  0  0  0
  5  6  1  0  0  0  0
  5 20  1  0  0  0  0
  5 21  1  0  0  0  0
  6  7  1  0  0  0  0
  6 22  1  0  0  0  0
  6 23  1  0  0  0  0
  7  8  1  0  0  0  0
  8  9  2  0  0  0  0
  8 10  1  0  0  0  0
 10 24  1  0  0  0  0
 10 25  1  0  0  0  0
 10 26  1  0  0  0  0
M  END
$$$$
