
 OpenBabel07122215493D

 14 14  0  0  0  0  0  0  0  0999 V2000
    0.9026    0.0041   -0.0581 S   0  0  0  0  0  0  0  0  0  0  0  0
    2.7128   -0.0298   -0.0976 C   0  0  0  0  0  0  0  0  0  0  0  0
    3.3250    1.0140    0.8307 C   0  0  0  0  0  0  0  0  0  0  0  0
    4.7440    0.5582    1.1482 C   0  0  0  0  0  0  0  0  0  0  0  0
    4.7055   -0.9278    1.4639 C   0  0  0  0  0  0  0  0  0  0  0  0
    3.3461   -1.6205    0.4925 S   0  0  0  0  0  0  0  0  0  0  0  0
    0.7480    1.1688   -0.7012 H   0  0  0  0  0  0  0  0  0  0  0  0
    3.0531    0.1153   -1.1269 H   0  0  0  0  0  0  0  0  0  0  0  0
    2.7589    1.1248    1.7625 H   0  0  0  0  0  0  0  0  0  0  0  0
    3.3451    1.9993    0.3467 H   0  0  0  0  0  0  0  0  0  0  0  0
    5.1520    1.1189    1.9986 H   0  0  0  0  0  0  0  0  0  0  0  0
    5.4045    0.7479    0.2958 H   0  0  0  0  0  0  0  0  0  0  0  0
    4.5173   -1.1080    2.5252 H   0  0  0  0  0  0  0  0  0  0  0  0
    5.6477   -1.4141    1.1913 H   0  0  0  0  0  0  0  0  0  0  0  0
  1  2  1  0  0  0  0
  1  7  1  0  0  0  0
  2  3  1  0  0  0  0
  2  6  1  0  0  0  0
  2  8  1  0  0  0  0
  3  4  1  0  0  0  0
  3  9  1  0  0  0  0
  3 10  1  0  0  0  0
  4  5  1  0  0  0  0
  4 11  1  0  0  0  0
  4 12  1  0  0  0  0
  5  6  1  0  0  0  0
  5 13  1  0  0  0  0
  5 14  1  0  0  0  0
M  END
$$$$
