
 OpenBabel07122215493D

 10  9  0  0  0  0  0  0  0  0999 V2000
    1.1196   -0.0243   -0.0324 C   0  0  0  0  0  0  0  0  0  0  0  0
    2.9201   -0.1107   -0.1946 S   0  0  0  0  0  0  0  0  0  0  0  0
    3.3919    0.5042    1.4437 C   0  0  0  0  0  0  0  0  0  0  0  0
    5.1940    0.6047    1.5755 S   0  0  0  0  0  0  0  0  0  0  0  0
    0.6652   -0.3571   -0.9697 H   0  0  0  0  0  0  0  0  0  0  0  0
    0.7938    1.0016    0.1607 H   0  0  0  0  0  0  0  0  0  0  0  0
    0.7711   -0.6804    0.7696 H   0  0  0  0  0  0  0  0  0  0  0  0
    3.0246   -0.1777    2.2171 H   0  0  0  0  0  0  0  0  0  0  0  0
    2.9742    1.4990    1.6125 H   0  0  0  0  0  0  0  0  0  0  0  0
    5.4302   -0.6748    1.2527 H   0  0  0  0  0  0  0  0  0  0  0  0
  1  2  1  0  0  0  0
  1  5  1  0  0  0  0
  1  6  1  0  0  0  0
  1  7  1  0  0  0  0
  2  3  1  0  0  0  0
  3  4  1  0  0  0  0
  3  8  1  0  0  0  0
  3  9  1  0  0  0  0
  4 10  1  0  0  0  0
M  END
$$$$
