
 OpenBabel07122215493D

 21 20  0  0  0  0  0  0  0  0999 V2000
    0.9125   -0.0121   -0.0579 C   0  0  0  0  0  0  0  0  0  0  0  0
    2.4311   -0.0136   -0.0717 C   0  0  0  0  0  0  0  0  0  0  0  0
    2.9633   -0.1786   -1.4927 C   0  0  0  0  0  0  0  0  0  0  0  0
    4.4891   -0.1805   -1.5093 C   0  0  0  0  0  0  0  0  0  0  0  0
    5.0213   -0.3463   -2.9285 C   0  0  0  0  0  0  0  0  0  0  0  0
    6.5425   -0.3501   -2.9448 C   0  0  0  0  0  0  0  0  0  0  0  0
    7.0096   -0.4976   -4.2782 O   0  0  0  0  0  0  0  0  0  0  0  0
    0.5416    0.1066    0.9643 H   0  0  0  0  0  0  0  0  0  0  0  0
    0.5186   -0.9518   -0.4583 H   0  0  0  0  0  0  0  0  0  0  0  0
    0.5185    0.8107   -0.6630 H   0  0  0  0  0  0  0  0  0  0  0  0
    2.7996   -0.8286    0.5623 H   0  0  0  0  0  0  0  0  0  0  0  0
    2.7995    0.9249    0.3587 H   0  0  0  0  0  0  0  0  0  0  0  0
    2.5890    0.6365   -2.1240 H   0  0  0  0  0  0  0  0  0  0  0  0
    2.5889   -1.1167   -1.9203 H   0  0  0  0  0  0  0  0  0  0  0  0
    4.8633   -0.9956   -0.8779 H   0  0  0  0  0  0  0  0  0  0  0  0
    4.8635    0.7577   -1.0821 H   0  0  0  0  0  0  0  0  0  0  0  0
    4.6502    0.4608   -3.5726 H   0  0  0  0  0  0  0  0  0  0  0  0
    4.6457   -1.2784   -3.3688 H   0  0  0  0  0  0  0  0  0  0  0  0
    6.9430   -1.1718   -2.3422 H   0  0  0  0  0  0  0  0  0  0  0  0
    6.9367    0.5904   -2.5481 H   0  0  0  0  0  0  0  0  0  0  0  0
    6.6630   -1.3392   -4.6170 H   0  0  0  0  0  0  0  0  0  0  0  0
  1  2  1  0  0  0  0
  1  8  1  0  0  0  0
  1  9  1  0  0  0  0
  1 10  1  0  0  0  0
  2  3  1  0  0  0  0
  2 11  1  0  0  0  0
  2 12  1  0  0  0  0
  3  4  1  0  0  0  0
  3 13  1  0  0  0  0
  3 14  1  0  0  0  0
  4  5  1  0  0  0  0
  4 15  1  0  0  0  0
  4 16  1  0  0  0  0
  5  6  1  0  0  0  0
  5 17  1  0  0  0  0
  5 18  1  0  0  0  0
  6  7  1  0  0  0  0
  6 19  1  0  0  0  0
  6 20  1  0  0  0  0
  7 21  1  0  0  0  0
M  END
$$$$
