
 OpenBabel07122215493D

 29 30  0  0  0  0  0  0  0  0999 V2000
    0.9935   -0.0241   -0.1094 C   0  0  0  0  0  0  0  0  0  0  0  0
    2.5207   -0.0685   -0.0615 C   0  0  0  0  0  0  0  0  0  0  0  0
    3.0216   -1.4921   -0.3654 C   0  0  0  0  0  0  0  0  0  0  0  0
    4.5518   -1.5246   -0.3008 C   0  0  0  0  0  0  0  0  0  0  0  0
    5.0755   -0.1028   -0.0259 C   0  0  0  0  0  0  0  0  0  0  0  0
    4.5532    0.3104    1.3626 C   0  0  0  0  0  0  0  0  0  0  0  0
    3.0230    0.3725    1.3253 C   0  0  0  0  0  0  0  0  0  0  0  0
    4.5019    0.8670   -1.0954 C   0  0  0  0  0  0  0  0  0  0  0  0
    4.9603    2.3154   -0.8532 C   0  0  0  0  0  0  0  0  0  0  0  0
    4.9577    0.4831   -2.5136 C   0  0  0  0  0  0  0  0  0  0  0  0
    3.0536    0.8346   -1.0575 O   0  0  0  0  0  0  0  0  0  0  0  0
    0.5554   -0.6991    0.6351 H   0  0  0  0  0  0  0  0  0  0  0  0
    0.6198   -0.3154   -1.0968 H   0  0  0  0  0  0  0  0  0  0  0  0
    0.6205    0.9872    0.0845 H   0  0  0  0  0  0  0  0  0  0  0  0
    2.6970   -1.8026   -1.3663 H   0  0  0  0  0  0  0  0  0  0  0  0
    2.6059   -2.2130    0.3486 H   0  0  0  0  0  0  0  0  0  0  0  0
    4.9575   -1.9271   -1.2347 H   0  0  0  0  0  0  0  0  0  0  0  0
    4.8788   -2.2131    0.4869 H   0  0  0  0  0  0  0  0  0  0  0  0
    6.1731   -0.0982   -0.0320 H   0  0  0  0  0  0  0  0  0  0  0  0
    4.9599    1.2790    1.6713 H   0  0  0  0  0  0  0  0  0  0  0  0
    4.8804   -0.4063    2.1246 H   0  0  0  0  0  0  0  0  0  0  0  0
    2.6993    1.3991    1.5371 H   0  0  0  0  0  0  0  0  0  0  0  0
    2.6076   -0.2675    2.1128 H   0  0  0  0  0  0  0  0  0  0  0  0
    6.0547    2.3801   -0.8256 H   0  0  0  0  0  0  0  0  0  0  0  0
    4.5632    2.7278    0.0785 H   0  0  0  0  0  0  0  0  0  0  0  0
    4.5998    2.9806   -1.6458 H   0  0  0  0  0  0  0  0  0  0  0  0
    6.0519    0.4474   -2.5768 H   0  0  0  0  0  0  0  0  0  0  0  0
    4.5973    1.2072   -3.2528 H   0  0  0  0  0  0  0  0  0  0  0  0
    4.5584   -0.4838   -2.8321 H   0  0  0  0  0  0  0  0  0  0  0  0
  1  2  1  0  0  0  0
  1 12  1  0  0  0  0
  1 13  1  0  0  0  0
  1 14  1  0  0  0  0
  2  3  1  0  0  0  0
  2  7  1  0  0  0  0
  2 11  1  0  0  0  0
  3  4  1  0  0  0  0
  3 15  1  0  0  0  0
  3 16  1  0  0  0  0
  4  5  1  0  0  0  0
  4 17  1  0  0  0  0
  4 18  1  0  0  0  0
  5  6  1  0  0  0  0
  5  8  1  0  0  0  0
  5 19  1  0  0  0  0
  6  7  1  0  0  0  0
  6 20  1  0  0  0  0
  6 21  1  0  0  0  0
  7 22  1  0  0  0  0
  7 23  1  0  0  0  0
  8  9  1  0  0  0  0
  8 10  1  0  0  0  0
  8 11  1  0  0  0  0
  9 24  1  0  0  0  0
  9 25  1  0  0  0  0
  9 26  1  0  0  0  0
 10 27  1  0  0  0  0
 10 28  1  0  0  0  0
 10 29  1  0  0  0  0
M  END
$$$$
