
 OpenBabel07122215493D

 38 37  0  0  0  0  0  0  0  0999 V2000
    0.9724    0.0606    0.0578 C   0  0  0  0  0  0  0  0  0  0  0  0
    2.4887    0.0669    0.0623 C   0  0  0  0  0  0  0  0  0  0  0  0
    3.0128    1.2329    0.8891 C   0  0  0  0  0  0  0  0  0  0  0  0
    4.5340    1.2425    0.8959 C   0  0  0  0  0  0  0  0  0  0  0  0
    5.0500    2.4100    1.7238 C   0  0  0  0  0  0  0  0  0  0  0  0
    6.5715    2.4205    1.7313 C   0  0  0  0  0  0  0  0  0  0  0  0
    7.0905    3.5888    2.5597 C   0  0  0  0  0  0  0  0  0  0  0  0
    8.6150    3.6041    2.5705 C   0  0  0  0  0  0  0  0  0  0  0  0
    9.1473    4.7720    3.3987 C   0  0  0  0  0  0  0  0  0  0  0  0
   10.6735    4.7904    3.4118 C   0  0  0  0  0  0  0  0  0  0  0  0
   11.1371    5.9012    4.1995 O   0  0  0  0  0  0  0  0  0  0  0  0
   12.4948    5.9986    4.2685 C   0  0  0  0  0  0  0  0  0  0  0  0
   13.2825    5.2320    3.7249 O   0  0  0  0  0  0  0  0  0  0  0  0
   12.9343    7.1700    5.0992 C   0  0  0  0  0  0  0  0  0  0  0  0
    0.5984   -0.7772   -0.5363 H   0  0  0  0  0  0  0  0  0  0  0  0
    0.5832    0.9897   -0.3709 H   0  0  0  0  0  0  0  0  0  0  0  0
    0.5832   -0.0366    1.0764 H   0  0  0  0  0  0  0  0  0  0  0  0
    2.8594    0.1424   -0.9667 H   0  0  0  0  0  0  0  0  0  0  0  0
    2.8594   -0.8792    0.4739 H   0  0  0  0  0  0  0  0  0  0  0  0
    2.6395    1.1579    1.9180 H   0  0  0  0  0  0  0  0  0  0  0  0
    2.6395    2.1790    0.4780 H   0  0  0  0  0  0  0  0  0  0  0  0
    4.9105    1.3205   -0.1314 H   0  0  0  0  0  0  0  0  0  0  0  0
    4.9105    0.2988    1.3094 H   0  0  0  0  0  0  0  0  0  0  0  0
    4.6730    2.3323    2.7511 H   0  0  0  0  0  0  0  0  0  0  0  0
    4.6730    3.3537    1.3107 H   0  0  0  0  0  0  0  0  0  0  0  0
    6.9453    2.4964    0.7028 H   0  0  0  0  0  0  0  0  0  0  0  0
    6.9453    1.4750    2.1431 H   0  0  0  0  0  0  0  0  0  0  0  0
    6.7106    3.5089    3.5856 H   0  0  0  0  0  0  0  0  0  0  0  0
    6.7106    4.5305    2.1450 H   0  0  0  0  0  0  0  0  0  0  0  0
    8.9857    3.6768    1.5405 H   0  0  0  0  0  0  0  0  0  0  0  0
    8.9857    2.6561    2.9800 H   0  0  0  0  0  0  0  0  0  0  0  0
    8.7692    4.7061    4.4263 H   0  0  0  0  0  0  0  0  0  0  0  0
    8.7692    5.7199    2.9966 H   0  0  0  0  0  0  0  0  0  0  0  0
   11.0466    4.8905    2.3856 H   0  0  0  0  0  0  0  0  0  0  0  0
   11.0466    3.8551    3.8458 H   0  0  0  0  0  0  0  0  0  0  0  0
   12.0813    7.7277    5.4947 H   0  0  0  0  0  0  0  0  0  0  0  0
   13.5328    7.8462    4.4819 H   0  0  0  0  0  0  0  0  0  0  0  0
   13.5328    6.8112    5.9415 H   0  0  0  0  0  0  0  0  0  0  0  0
  1  2  1  0  0  0  0
  1 15  1  0  0  0  0
  1 16  1  0  0  0  0
  1 17  1  0  0  0  0
  2  3  1  0  0  0  0
  2 18  1  0  0  0  0
  2 19  1  0  0  0  0
  3  4  1  0  0  0  0
  3 20  1  0  0  0  0
  3 21  1  0  0  0  0
  4  5  1  0  0  0  0
  4 22  1  0  0  0  0
  4 23  1  0  0  0  0
  5  6  1  0  0  0  0
  5 24  1  0  0  0  0
  5 25  1  0  0  0  0
  6  7  1  0  0  0  0
  6 26  1  0  0  0  0
  6 27  1  0  0  0  0
  7  8  1  0  0  0  0
  7 28  1  0  0  0  0
  7 29  1  0  0  0  0
  8  9  1  0  0  0  0
  8 30  1  0  0  0  0
  8 31  1  0  0  0  0
  9 10  1  0  0  0  0
  9 32  1  0  0  0  0
  9 33  1  0  0  0  0
 10 11  1  0  0  0  0
 10 34  1  0  0  0  0
 10 35  1  0  0  0  0
 11 12  1  0  0  0  0
 12 13  2  0  0  0  0
 12 14  1  0  0  0  0
 14 36  1  0  0  0  0
 14 37  1  0  0  0  0
 14 38  1  0  0  0  0
M  END
$$$$
