
 OpenBabel07122215493D

 27 26  0  0  0  0  0  0  0  0999 V2000
    0.9824    0.0389   -0.0956 C   0  0  0  0  0  0  0  0  0  0  0  0
    2.4957    0.0589   -0.0791 C   0  0  0  0  0  0  0  0  0  0  0  0
    2.9781    1.1712    0.8441 C   0  0  0  0  0  0  0  0  0  0  0  0
    4.4827    1.2028    0.8704 C   0  0  0  0  0  0  0  0  0  0  0  0
    5.0233    2.3065    1.7864 C   0  0  0  0  0  0  0  0  0  0  0  0
    6.5215    2.2151    1.7106 C   0  0  0  0  0  0  0  0  0  0  0  0
    7.0069    1.3433    0.9870 O   0  0  0  0  0  0  0  0  0  0  0  0
    7.3608    3.1713    2.5042 C   0  0  0  0  0  0  0  0  0  0  0  0
    8.8684    3.0455    2.3997 C   0  0  0  0  0  0  0  0  0  0  0  0
    9.5678    2.0127    1.5426 C   0  0  0  0  0  0  0  0  0  0  0  0
    9.5694    3.8318    3.0524 O   0  0  0  0  0  0  0  0  0  0  0  0
    0.6172   -0.7531   -0.7530 H   0  0  0  0  0  0  0  0  0  0  0  0
    0.5929    0.9974   -0.4529 H   0  0  0  0  0  0  0  0  0  0  0  0
    0.5929   -0.1357    0.9123 H   0  0  0  0  0  0  0  0  0  0  0  0
    2.8775    0.2148   -1.0958 H   0  0  0  0  0  0  0  0  0  0  0  0
    2.8775   -0.9117    0.2615 H   0  0  0  0  0  0  0  0  0  0  0  0
    2.6036    1.0076    1.8602 H   0  0  0  0  0  0  0  0  0  0  0  0
    2.6036    2.1397    0.4961 H   0  0  0  0  0  0  0  0  0  0  0  0
    4.8619    1.3489   -0.1522 H   0  0  0  0  0  0  0  0  0  0  0  0
    4.8619    0.2247    1.2023 H   0  0  0  0  0  0  0  0  0  0  0  0
    4.6979    2.1468    2.8189 H   0  0  0  0  0  0  0  0  0  0  0  0
    4.6979    3.2919    1.4393 H   0  0  0  0  0  0  0  0  0  0  0  0
    7.0975    3.0567    3.5637 H   0  0  0  0  0  0  0  0  0  0  0  0
    7.0975    4.1916    2.1964 H   0  0  0  0  0  0  0  0  0  0  0  0
    8.9565    1.3292    0.9753 H   0  0  0  0  0  0  0  0  0  0  0  0
   10.1761    1.3746    2.1859 H   0  0  0  0  0  0  0  0  0  0  0  0
   10.1761    2.5275    0.7969 H   0  0  0  0  0  0  0  0  0  0  0  0
  1  2  1  0  0  0  0
  1 12  1  0  0  0  0
  1 13  1  0  0  0  0
  1 14  1  0  0  0  0
  2  3  1  0  0  0  0
  2 15  1  0  0  0  0
  2 16  1  0  0  0  0
  3  4  1  0  0  0  0
  3 17  1  0  0  0  0
  3 18  1  0  0  0  0
  4  5  1  0  0  0  0
  4 19  1  0  0  0  0
  4 20  1  0  0  0  0
  5  6  1  0  0  0  0
  5 21  1  0  0  0  0
  5 22  1  0  0  0  0
  6  7  2  0  0  0  0
  6  8  1  0  0  0  0
  8  9  1  0  0  0  0
  8 23  1  0  0  0  0
  8 24  1  0  0  0  0
  9 10  1  0  0  0  0
  9 11  2  0  0  0  0
 10 25  1  0  0  0  0
 10 26  1  0  0  0  0
 10 27  1  0  0  0  0
M  END
$$$$
