
 OpenBabel07122215493D

 24 25  0  0  0  0  0  0  0  0999 V2000
    2.2174    0.1218    0.0003 C   0  0  0  0  0  0  0  0  0  0  0  0
    0.7604   -0.1115    0.0004 C   0  0  0  0  0  0  0  0  0  0  0  0
   -0.0683   -1.2102   -0.0192 C   0  0  0  0  0  0  0  0  0  0  0  0
   -1.4004   -0.7033   -0.0029 C   0  0  0  0  0  0  0  0  0  0  0  0
   -1.2927    0.6647    0.0110 C   0  0  0  0  0  0  0  0  0  0  0  0
    0.0111    1.0339    0.0152 O   0  0  0  0  0  0  0  0  0  0  0  0
    0.2745   -2.9199   -0.0765 S   0  0  0  0  0  0  0  0  0  0  0  0
    2.2958   -3.2445   -0.0169 S   0  0  0  0  0  0  0  0  0  0  0  0
    2.6396   -4.9541   -0.0283 C   0  0  0  0  0  0  0  0  0  0  0  0
    1.8132   -6.0525    0.0293 C   0  0  0  0  0  0  0  0  0  0  0  0
    2.5619   -7.1979   -0.0033 O   0  0  0  0  0  0  0  0  0  0  0  0
    3.8636   -6.8284   -0.0760 C   0  0  0  0  0  0  0  0  0  0  0  0
    3.9704   -5.4602   -0.0925 C   0  0  0  0  0  0  0  0  0  0  0  0
    0.3586   -6.2839    0.1183 C   0  0  0  0  0  0  0  0  0  0  0  0
    2.8024   -0.7893    0.0173 H   0  0  0  0  0  0  0  0  0  0  0  0
    2.5119    0.6883    0.8864 H   0  0  0  0  0  0  0  0  0  0  0  0
    2.5157    0.6630   -0.9002 H   0  0  0  0  0  0  0  0  0  0  0  0
   -2.3292   -1.2585   -0.0091 H   0  0  0  0  0  0  0  0  0  0  0  0
   -2.0087    1.4774    0.0176 H   0  0  0  0  0  0  0  0  0  0  0  0
    4.5794   -7.6407   -0.1064 H   0  0  0  0  0  0  0  0  0  0  0  0
    4.8974   -4.9046   -0.1438 H   0  0  0  0  0  0  0  0  0  0  0  0
   -0.2207   -5.3713    0.1885 H   0  0  0  0  0  0  0  0  0  0  0  0
    0.1185   -6.8614    1.0133 H   0  0  0  0  0  0  0  0  0  0  0  0
    0.0039   -6.8133   -0.7690 H   0  0  0  0  0  0  0  0  0  0  0  0
  1  2  1  0  0  0  0
  1 15  1  0  0  0  0
  1 16  1  0  0  0  0
  1 17  1  0  0  0  0
  2  3  2  0  0  0  0
  2  6  1  0  0  0  0
  3  4  1  0  0  0  0
  3  7  1  0  0  0  0
  4  5  2  0  0  0  0
  4 18  1  0  0  0  0
  5  6  1  0  0  0  0
  5 19  1  0  0  0  0
  7  8  1  0  0  0  0
  8  9  1  0  0  0  0
  9 10  2  0  0  0  0
  9 13  1  0  0  0  0
 10 11  1  0  0  0  0
 10 14  1  0  0  0  0
 11 12  1  0  0  0  0
 12 13  2  0  0  0  0
 12 20  1  0  0  0  0
 13 21  1  0  0  0  0
 14 22  1  0  0  0  0
 14 23  1  0  0  0  0
 14 24  1  0  0  0  0
M  END
$$$$
