
 OpenBabel07122215493D

 27 28  0  0  1  0  0  0  0  0999 V2000
    1.0485   -0.1964   -0.4718 C   0  0  0  0  0  0  0  0  0  0  0  0
    2.5516   -0.2528   -0.1253 C   0  0  2  0  0  0  0  0  0  0  0  0
    3.2387   -1.4515   -0.7344 C   0  0  0  0  0  0  0  0  0  0  0  0
    4.6317   -1.3031   -0.1398 C   0  0  0  0  0  0  0  0  0  0  0  0
    4.5437    0.0405    0.7112 C   0  0  2  0  0  0  0  0  0  0  0  0
    3.1072   -0.0650    1.3753 C   0  0  0  0  0  0  0  0  0  0  0  0
    3.7002   -0.5091    2.7650 C   0  0  0  0  0  0  0  0  0  0  0  0
    1.8128    0.4123    2.0683 C   0  0  0  0  0  0  0  0  0  0  0  0
    4.5791    1.2187   -0.2240 C   0  0  0  0  0  0  0  0  0  0  0  0
    3.2591    0.9368   -0.8707 C   0  0  0  0  0  0  0  0  0  0  0  0
    2.9158    1.4425   -1.9137 O   0  0  0  0  0  0  0  0  0  0  0  0
    0.5055   -0.9798    0.0674 H   0  0  0  0  0  0  0  0  0  0  0  0
    0.8387   -0.3053   -1.5391 H   0  0  0  0  0  0  0  0  0  0  0  0
    0.5931    0.7805   -0.2450 H   0  0  0  0  0  0  0  0  0  0  0  0
    3.2584   -1.3863   -1.8319 H   0  0  0  0  0  0  0  0  0  0  0  0
    2.7427   -2.3832   -0.4539 H   0  0  0  0  0  0  0  0  0  0  0  0
    5.3885   -1.2430   -0.9321 H   0  0  0  0  0  0  0  0  0  0  0  0
    4.8585   -2.1807    0.4740 H   0  0  0  0  0  0  0  0  0  0  0  0
    5.4458    0.0676    1.3336 H   0  0  0  0  0  0  0  0  0  0  0  0
    4.7718   -0.6912    2.8907 H   0  0  0  0  0  0  0  0  0  0  0  0
    3.1649   -1.3079    3.2755 H   0  0  0  0  0  0  0  0  0  0  0  0
    3.6242    0.3920    3.4236 H   0  0  0  0  0  0  0  0  0  0  0  0
    0.9280    0.6989    1.5230 H   0  0  0  0  0  0  0  0  0  0  0  0
    1.9222    1.2079    2.7978 H   0  0  0  0  0  0  0  0  0  0  0  0
    1.4020   -0.5007    2.5609 H   0  0  0  0  0  0  0  0  0  0  0  0
    5.4072    1.1315   -0.9358 H   0  0  0  0  0  0  0  0  0  0  0  0
    4.6190    2.1602    0.3213 H   0  0  0  0  0  0  0  0  0  0  0  0
  1 12  1  0  0  0  0
  1 13  1  0  0  0  0
  1 14  1  0  0  0  0
  2  3  1  0  0  0  0
  2  6  1  0  0  0  0
  2 10  1  0  0  0  0
  2  1  1  6  0  0  0
  3  4  1  0  0  0  0
  3 15  1  0  0  0  0
  3 16  1  0  0  0  0
  4  5  1  0  0  0  0
  4 17  1  0  0  0  0
  4 18  1  0  0  0  0
  5  6  1  0  0  0  0
  5  9  1  0  0  0  0
  5 19  1  1  0  0  0
  6  7  1  0  0  0  0
  6  8  1  0  0  0  0
  7 20  1  0  0  0  0
  7 21  1  0  0  0  0
  7 22  1  0  0  0  0
  8 23  1  0  0  0  0
  8 24  1  0  0  0  0
  8 25  1  0  0  0  0
  9 10  1  0  0  0  0
  9 26  1  0  0  0  0
  9 27  1  0  0  0  0
 10 11  2  0  0  0  0
M  END
$$$$
