
 OpenBabel07122215493D

 14 13  0  0  0  0  0  0  0  0999 V2000
    0.8968   -0.0619    0.0524 C   0  0  0  0  0  0  0  0  0  0  0  0
    2.4190   -0.0189   -0.0097 C   0  0  0  0  0  0  0  0  0  0  0  0
    2.9504   -1.3697   -0.4887 C   0  0  0  0  0  0  0  0  0  0  0  0
    2.9996    1.0894   -0.8802 C   0  0  0  0  0  0  0  0  0  0  0  0
    2.1252    1.8919   -1.5186 O   0  0  0  0  0  0  0  0  0  0  0  0
    4.2073    1.2584   -1.0072 O   0  0  0  0  0  0  0  0  0  0  0  0
    0.5500   -0.8649    0.7105 H   0  0  0  0  0  0  0  0  0  0  0  0
    0.4695   -0.2350   -0.9414 H   0  0  0  0  0  0  0  0  0  0  0  0
    0.4969    0.8814    0.4394 H   0  0  0  0  0  0  0  0  0  0  0  0
    2.7871    0.1658    1.0083 H   0  0  0  0  0  0  0  0  0  0  0  0
    2.6184   -1.5804   -1.5112 H   0  0  0  0  0  0  0  0  0  0  0  0
    2.5998   -2.1815    0.1581 H   0  0  0  0  0  0  0  0  0  0  0  0
    4.0456   -1.3918   -0.4856 H   0  0  0  0  0  0  0  0  0  0  0  0
    1.1766    1.7187   -1.3911 H   0  0  0  0  0  0  0  0  0  0  0  0
  1  2  1  0  0  0  0
  1  7  1  0  0  0  0
  1  8  1  0  0  0  0
  1  9  1  0  0  0  0
  2  3  1  0  0  0  0
  2  4  1  0  0  0  0
  2 10  1  0  0  0  0
  3 11  1  0  0  0  0
  3 12  1  0  0  0  0
  3 13  1  0  0  0  0
  4  5  1  0  0  0  0
  4  6  2  0  0  0  0
  5 14  1  0  0  0  0
M  END
$$$$
