
 OpenBabel07122215493D

  6  5  0  0  0  0  0  0  0  0999 V2000
    1.1487   -0.0014   -0.0166 C   0  0  0  0  0  0  0  0  0  0  0  0
    2.9514   -0.0738   -0.0017 S   0  0  0  0  0  0  0  0  0  0  0  0
    0.7977    0.3370   -0.9947 H   0  0  0  0  0  0  0  0  0  0  0  0
    0.7977    0.6955    0.7487 H   0  0  0  0  0  0  0  0  0  0  0  0
    0.7368   -0.9926    0.1873 H   0  0  0  0  0  0  0  0  0  0  0  0
    3.1608    1.2237   -0.2685 H   0  0  0  0  0  0  0  0  0  0  0  0
  1  2  1  0  0  0  0
  1  3  1  0  0  0  0
  1  4  1  0  0  0  0
  1  5  1  0  0  0  0
  2  6  1  0  0  0  0
M  END
$$$$
