
 OpenBabel07122215493D

 27 26  0  0  0  0  0  0  0  0999 V2000
    0.9577   -0.0284   -0.1153 C   0  0  0  0  0  0  0  0  0  0  0  0
    2.4747   -0.0201   -0.1062 C   0  0  0  0  0  0  0  0  0  0  0  0
    3.0024    1.0551    0.8369 C   0  0  0  0  0  0  0  0  0  0  0  0
    4.5251    1.0637    0.8416 C   0  0  0  0  0  0  0  0  0  0  0  0
    5.0572    2.1441    1.7802 C   0  0  0  0  0  0  0  0  0  0  0  0
    6.5850    2.1629    1.7860 C   0  0  0  0  0  0  0  0  0  0  0  0
    7.0644    2.4136    0.4653 O   0  0  0  0  0  0  0  0  0  0  0  0
    7.1152    3.2362    2.7359 C   0  0  0  0  0  0  0  0  0  0  0  0
    8.6355    3.2527    2.7594 C   0  0  0  0  0  0  0  0  0  0  0  0
    0.5867   -0.8024   -0.7928 H   0  0  0  0  0  0  0  0  0  0  0  0
    0.5664    0.9378   -0.4493 H   0  0  0  0  0  0  0  0  0  0  0  0
    0.5650   -0.2303    0.8863 H   0  0  0  0  0  0  0  0  0  0  0  0
    2.8453    0.1597   -1.1223 H   0  0  0  0  0  0  0  0  0  0  0  0
    2.8448   -1.0040    0.2051 H   0  0  0  0  0  0  0  0  0  0  0  0
    2.6305    0.8757    1.8530 H   0  0  0  0  0  0  0  0  0  0  0  0
    2.6297    2.0383    0.5241 H   0  0  0  0  0  0  0  0  0  0  0  0
    4.8891    1.2376   -0.1781 H   0  0  0  0  0  0  0  0  0  0  0  0
    4.9026    0.0835    1.1574 H   0  0  0  0  0  0  0  0  0  0  0  0
    4.6827    1.9696    2.7964 H   0  0  0  0  0  0  0  0  0  0  0  0
    4.6742    3.1185    1.4512 H   0  0  0  0  0  0  0  0  0  0  0  0
    6.9622    1.1804    2.0913 H   0  0  0  0  0  0  0  0  0  0  0  0
    6.7189    3.2744    0.1817 H   0  0  0  0  0  0  0  0  0  0  0  0
    6.7365    3.0590    3.7494 H   0  0  0  0  0  0  0  0  0  0  0  0
    6.7613    4.2247    2.4188 H   0  0  0  0  0  0  0  0  0  0  0  0
    9.0272    2.2847    3.0876 H   0  0  0  0  0  0  0  0  0  0  0  0
    8.9957    4.0220    3.4478 H   0  0  0  0  0  0  0  0  0  0  0  0
    9.0438    3.4689    1.7670 H   0  0  0  0  0  0  0  0  0  0  0  0
  1  2  1  0  0  0  0
  1 10  1  0  0  0  0
  1 11  1  0  0  0  0
  1 12  1  0  0  0  0
  2  3  1  0  0  0  0
  2 13  1  0  0  0  0
  2 14  1  0  0  0  0
  3  4  1  0  0  0  0
  3 15  1  0  0  0  0
  3 16  1  0  0  0  0
  4  5  1  0  0  0  0
  4 17  1  0  0  0  0
  4 18  1  0  0  0  0
  5  6  1  0  0  0  0
  5 19  1  0  0  0  0
  5 20  1  0  0  0  0
  6  7  1  0  0  0  0
  6  8  1  0  0  0  0
  6 21  1  0  0  0  0
  7 22  1  0  0  0  0
  8  9  1  0  0  0  0
  8 23  1  0  0  0  0
  8 24  1  0  0  0  0
  9 25  1  0  0  0  0
  9 26  1  0  0  0  0
  9 27  1  0  0  0  0
M  END
$$$$
