
 OpenBabel07122215493D

  9  8  0  0  0  0  0  0  0  0999 V2000
    0.9470    0.0452   -0.0191 C   0  0  0  0  0  0  0  0  0  0  0  0
    2.4642    0.0391   -0.0130 C   0  0  0  0  0  0  0  0  0  0  0  0
    3.1016   -1.2135    1.1346 S   0  0  0  0  0  0  0  0  0  0  0  0
    0.5812    0.7866   -0.7374 H   0  0  0  0  0  0  0  0  0  0  0  0
    0.5417    0.3089    0.9634 H   0  0  0  0  0  0  0  0  0  0  0  0
    0.5412   -0.9288   -0.3138 H   0  0  0  0  0  0  0  0  0  0  0  0
    2.8452    1.0205    0.2863 H   0  0  0  0  0  0  0  0  0  0  0  0
    2.8435   -0.1816   -1.0149 H   0  0  0  0  0  0  0  0  0  0  0  0
    2.5521   -0.7053    2.2474 H   0  0  0  0  0  0  0  0  0  0  0  0
  1  2  1  0  0  0  0
  1  4  1  0  0  0  0
  1  5  1  0  0  0  0
  1  6  1  0  0  0  0
  2  3  1  0  0  0  0
  2  7  1  0  0  0  0
  2  8  1  0  0  0  0
  3  9  1  0  0  0  0
M  END
$$$$
