
 OpenBabel07122215493D

 34 33  0  0  0  0  0  0  0  0999 V2000
    0.9496    0.0496    0.0948 C   0  0  0  0  0  0  0  0  0  0  0  0
    2.4657    0.0515    0.0875 C   0  0  0  0  0  0  0  0  0  0  0  0
    2.9895    0.4035   -1.2976 C   0  0  0  0  0  0  0  0  0  0  0  0
    4.5099    0.4061   -1.3081 C   0  0  0  0  0  0  0  0  0  0  0  0
    5.0240    0.7585   -2.6947 C   0  0  0  0  0  0  0  0  0  0  0  0
    6.5435    0.7610   -2.7045 C   0  0  0  0  0  0  0  0  0  0  0  0
    7.0579    1.1133   -4.0910 C   0  0  0  0  0  0  0  0  0  0  0  0
    8.5785    1.1161   -4.1018 C   0  0  0  0  0  0  0  0  0  0  0  0
    9.1016    1.4681   -5.4872 C   0  0  0  0  0  0  0  0  0  0  0  0
   10.6226    1.4697   -5.4936 C   0  0  0  0  0  0  0  0  0  0  0  0
   11.1542    1.8160   -6.8560 C   0  0  0  0  0  0  0  0  0  0  0  0
   12.3568    1.8783   -7.1011 O   0  0  0  0  0  0  0  0  0  0  0  0
    0.5757   -0.2033    1.0903 H   0  0  0  0  0  0  0  0  0  0  0  0
    0.5605   -0.6846   -0.6179 H   0  0  0  0  0  0  0  0  0  0  0  0
    0.5605    1.0350   -0.1809 H   0  0  0  0  0  0  0  0  0  0  0  0
    2.8367   -0.9357    0.3871 H   0  0  0  0  0  0  0  0  0  0  0  0
    2.8367    0.7759    0.8220 H   0  0  0  0  0  0  0  0  0  0  0  0
    2.6166    1.3905   -1.5981 H   0  0  0  0  0  0  0  0  0  0  0  0
    2.6166   -0.3204   -2.0329 H   0  0  0  0  0  0  0  0  0  0  0  0
    4.8872   -0.5803   -1.0120 H   0  0  0  0  0  0  0  0  0  0  0  0
    4.8872    1.1315   -0.5770 H   0  0  0  0  0  0  0  0  0  0  0  0
    4.6483    1.7452   -2.9926 H   0  0  0  0  0  0  0  0  0  0  0  0
    4.6483    0.0337   -3.4275 H   0  0  0  0  0  0  0  0  0  0  0  0
    6.9190   -0.2257   -2.4066 H   0  0  0  0  0  0  0  0  0  0  0  0
    6.9190    1.4858   -1.9717 H   0  0  0  0  0  0  0  0  0  0  0  0
    6.6805    2.0997   -4.3872 H   0  0  0  0  0  0  0  0  0  0  0  0
    6.6805    0.3880   -4.8222 H   0  0  0  0  0  0  0  0  0  0  0  0
    8.9515    0.1290   -3.8017 H   0  0  0  0  0  0  0  0  0  0  0  0
    8.9515    1.8401   -3.3669 H   0  0  0  0  0  0  0  0  0  0  0  0
    8.7229    2.4529   -5.7890 H   0  0  0  0  0  0  0  0  0  0  0  0
    8.7229    0.7469   -6.2225 H   0  0  0  0  0  0  0  0  0  0  0  0
   11.0004    0.4794   -5.2188 H   0  0  0  0  0  0  0  0  0  0  0  0
   11.0004    2.2087   -4.7793 H   0  0  0  0  0  0  0  0  0  0  0  0
   10.4095    2.0163   -7.6443 H   0  0  0  0  0  0  0  0  0  0  0  0
  1  2  1  0  0  0  0
  1 13  1  0  0  0  0
  1 14  1  0  0  0  0
  1 15  1  0  0  0  0
  2  3  1  0  0  0  0
  2 16  1  0  0  0  0
  2 17  1  0  0  0  0
  3  4  1  0  0  0  0
  3 18  1  0  0  0  0
  3 19  1  0  0  0  0
  4  5  1  0  0  0  0
  4 20  1  0  0  0  0
  4 21  1  0  0  0  0
  5  6  1  0  0  0  0
  5 22  1  0  0  0  0
  5 23  1  0  0  0  0
  6  7  1  0  0  0  0
  6 24  1  0  0  0  0
  6 25  1  0  0  0  0
  7  8  1  0  0  0  0
  7 26  1  0  0  0  0
  7 27  1  0  0  0  0
  8  9  1  0  0  0  0
  8 28  1  0  0  0  0
  8 29  1  0  0  0  0
  9 10  1  0  0  0  0
  9 30  1  0  0  0  0
  9 31  1  0  0  0  0
 10 11  1  0  0  0  0
 10 32  1  0  0  0  0
 10 33  1  0  0  0  0
 11 12  2  0  0  0  0
 11 34  1  0  0  0  0
M  END
$$$$
