
 OpenBabel07122215493D

 25 25  0  0  1  0  0  0  0  0999 V2000
    2.6365   -3.8170    0.4606 C   0  0  0  0  0  0  0  0  0  0  0  0
    2.5462   -2.5129    1.2062 C   0  0  0  0  0  0  0  0  0  0  0  0
    1.8674   -2.4581    2.3672 C   0  0  0  0  0  0  0  0  0  0  0  0
    3.1932   -1.2646    0.6042 C   0  0  1  0  0  0  0  0  0  0  0  0
    4.0166   -0.4818    1.6478 C   0  0  0  0  0  0  0  0  0  0  0  0
    4.5074    0.8536    1.0914 C   0  0  0  0  0  0  0  0  0  0  0  0
    5.0397    0.7534   -0.3048 C   0  0  0  0  0  0  0  0  0  0  0  0
    4.8595   -0.3196   -1.0918 C   0  0  0  0  0  0  0  0  0  0  0  0
    4.0792   -1.5252   -0.6414 C   0  0  0  0  0  0  0  0  0  0  0  0
    5.8156    1.9094   -0.8165 C   0  0  0  0  0  0  0  0  0  0  0  0
    6.0153    2.9154   -0.1443 O   0  0  0  0  0  0  0  0  0  0  0  0
    2.1137   -4.6241    0.9849 H   0  0  0  0  0  0  0  0  0  0  0  0
    3.6791   -4.1305    0.3511 H   0  0  0  0  0  0  0  0  0  0  0  0
    2.1839   -3.7247   -0.5317 H   0  0  0  0  0  0  0  0  0  0  0  0
    1.3985   -3.3358    2.7999 H   0  0  0  0  0  0  0  0  0  0  0  0
    1.7463   -1.5329    2.9218 H   0  0  0  0  0  0  0  0  0  0  0  0
    2.3656   -0.6194    0.2713 H   0  0  0  0  0  0  0  0  0  0  0  0
    4.8727   -1.0894    1.9718 H   0  0  0  0  0  0  0  0  0  0  0  0
    3.4332   -0.2625    2.5480 H   0  0  0  0  0  0  0  0  0  0  0  0
    5.2735    1.2457    1.7702 H   0  0  0  0  0  0  0  0  0  0  0  0
    3.6735    1.5666    1.0944 H   0  0  0  0  0  0  0  0  0  0  0  0
    5.2763   -0.3613   -2.0951 H   0  0  0  0  0  0  0  0  0  0  0  0
    4.8021   -2.3266   -0.4455 H   0  0  0  0  0  0  0  0  0  0  0  0
    3.4439   -1.8567   -1.4721 H   0  0  0  0  0  0  0  0  0  0  0  0
    6.2046    1.8147   -1.8427 H   0  0  0  0  0  0  0  0  0  0  0  0
  1  2  1  0  0  0  0
  1 12  1  0  0  0  0
  1 13  1  0  0  0  0
  1 14  1  0  0  0  0
  2  3  2  0  0  0  0
  3 15  1  0  0  0  0
  3 16  1  0  0  0  0
  4  5  1  0  0  0  0
  4  9  1  0  0  0  0
  4  2  1  0  0  0  0
  4 17  1  6  0  0  0
  5  6  1  0  0  0  0
  5 18  1  0  0  0  0
  5 19  1  0  0  0  0
  6  7  1  0  0  0  0
  6 20  1  0  0  0  0
  6 21  1  0  0  0  0
  7  8  2  0  0  0  0
  7 10  1  0  0  0  0
  8  9  1  0  0  0  0
  8 22  1  0  0  0  0
  9 23  1  0  0  0  0
  9 24  1  0  0  0  0
 10 11  2  0  0  0  0
 10 25  1  0  0  0  0
M  END
$$$$
