
 OpenBabel07122215493D

 32 31  0  0  0  0  0  0  0  0999 V2000
    0.9891   -0.0867    0.0677 C   0  0  0  0  0  0  0  0  0  0  0  0
    2.5057   -0.0785    0.0686 C   0  0  0  0  0  0  0  0  0  0  0  0
    3.0316    1.3437    0.2145 C   0  0  0  0  0  0  0  0  0  0  0  0
    4.5540    1.3545    0.2156 C   0  0  0  0  0  0  0  0  0  0  0  0
    5.0777    2.7765    0.3615 C   0  0  0  0  0  0  0  0  0  0  0  0
    6.6037    2.7869    0.3626 C   0  0  0  0  0  0  0  0  0  0  0  0
    7.1209    4.2113    0.5088 C   0  0  0  0  0  0  0  0  0  0  0  0
    8.6479    4.2803    0.5158 C   0  0  0  0  0  0  0  0  0  0  0  0
    9.0964    5.7188    0.6635 C   0  0  0  0  0  0  0  0  0  0  0  0
    8.3393    6.6778    0.7619 O   0  0  0  0  0  0  0  0  0  0  0  0
   10.4558    5.8098    0.6728 O   0  0  0  0  0  0  0  0  0  0  0  0
   10.9329    7.1536    0.8107 C   0  0  0  0  0  0  0  0  0  0  0  0
    0.6152   -1.1087   -0.0372 H   0  0  0  0  0  0  0  0  0  0  0  0
    0.5995    0.5106   -0.7628 H   0  0  0  0  0  0  0  0  0  0  0  0
    0.5995    0.3295    1.0022 H   0  0  0  0  0  0  0  0  0  0  0  0
    2.8759   -0.5197   -0.8643 H   0  0  0  0  0  0  0  0  0  0  0  0
    2.8759   -0.6999    0.8924 H   0  0  0  0  0  0  0  0  0  0  0  0
    2.6577    1.7845    1.1470 H   0  0  0  0  0  0  0  0  0  0  0  0
    2.6577    1.9647   -0.6090 H   0  0  0  0  0  0  0  0  0  0  0  0
    4.9286    0.9160   -0.7172 H   0  0  0  0  0  0  0  0  0  0  0  0
    4.9286    0.7357    1.0399 H   0  0  0  0  0  0  0  0  0  0  0  0
    4.7002    3.2157    1.2935 H   0  0  0  0  0  0  0  0  0  0  0  0
    4.7002    3.3959   -0.4618 H   0  0  0  0  0  0  0  0  0  0  0  0
    6.9750    2.3476   -0.5709 H   0  0  0  0  0  0  0  0  0  0  0  0
    6.9750    2.1672    1.1874 H   0  0  0  0  0  0  0  0  0  0  0  0
    6.7300    4.6453    1.4381 H   0  0  0  0  0  0  0  0  0  0  0  0
    6.7300    4.8250   -0.3131 H   0  0  0  0  0  0  0  0  0  0  0  0
    9.0411    3.8742   -0.4228 H   0  0  0  0  0  0  0  0  0  0  0  0
    9.0411    3.6920    1.3525 H   0  0  0  0  0  0  0  0  0  0  0  0
   12.0264    7.1366    0.8089 H   0  0  0  0  0  0  0  0  0  0  0  0
   10.5982    7.5868    1.7595 H   0  0  0  0  0  0  0  0  0  0  0  0
   10.5981    7.7705   -0.0304 H   0  0  0  0  0  0  0  0  0  0  0  0
  1  2  1  0  0  0  0
  1 13  1  0  0  0  0
  1 14  1  0  0  0  0
  1 15  1  0  0  0  0
  2  3  1  0  0  0  0
  2 16  1  0  0  0  0
  2 17  1  0  0  0  0
  3  4  1  0  0  0  0
  3 18  1  0  0  0  0
  3 19  1  0  0  0  0
  4  5  1  0  0  0  0
  4 20  1  0  0  0  0
  4 21  1  0  0  0  0
  5  6  1  0  0  0  0
  5 22  1  0  0  0  0
  5 23  1  0  0  0  0
  6  7  1  0  0  0  0
  6 24  1  0  0  0  0
  6 25  1  0  0  0  0
  7  8  1  0  0  0  0
  7 26  1  0  0  0  0
  7 27  1  0  0  0  0
  8  9  1  0  0  0  0
  8 28  1  0  0  0  0
  8 29  1  0  0  0  0
  9 10  2  0  0  0  0
  9 11  1  0  0  0  0
 11 12  1  0  0  0  0
 12 30  1  0  0  0  0
 12 31  1  0  0  0  0
 12 32  1  0  0  0  0
M  END
$$$$
