
 OpenBabel07122215493D

 29 28  0  0  0  0  0  0  0  0999 V2000
    1.0740   -0.0228    0.0192 C   0  0  0  0  0  0  0  0  0  0  0  0
    2.5912   -0.0305    0.0250 C   0  0  0  0  0  0  0  0  0  0  0  0
    3.1158   -1.1780    0.8802 C   0  0  0  0  0  0  0  0  0  0  0  0
    4.6385   -1.1944    0.8924 C   0  0  0  0  0  0  0  0  0  0  0  0
    5.1568   -2.3463    1.7509 C   0  0  0  0  0  0  0  0  0  0  0  0
    6.6797   -2.3560    1.7581 C   0  0  0  0  0  0  0  0  0  0  0  0
    7.2544   -3.4920    2.6047 C   0  0  0  0  0  0  0  0  0  0  0  0
    8.7675   -3.4448    2.5695 C   0  0  0  0  0  0  0  0  0  0  0  0
    9.4240   -2.6149    1.9510 O   0  0  0  0  0  0  0  0  0  0  0  0
    9.3069   -4.4480    3.3172 O   0  0  0  0  0  0  0  0  0  0  0  0
   10.7396   -4.4477    3.3170 C   0  0  0  0  0  0  0  0  0  0  0  0
    0.7001    0.8010   -0.5947 H   0  0  0  0  0  0  0  0  0  0  0  0
    0.6836    0.0991    1.0347 H   0  0  0  0  0  0  0  0  0  0  0  0
    0.6836   -0.9611   -0.3878 H   0  0  0  0  0  0  0  0  0  0  0  0
    2.9611    0.9255    0.4137 H   0  0  0  0  0  0  0  0  0  0  0  0
    2.9611   -0.1297   -1.0022 H   0  0  0  0  0  0  0  0  0  0  0  0
    2.7404   -2.1321    0.4903 H   0  0  0  0  0  0  0  0  0  0  0  0
    2.7404   -1.0771    1.9059 H   0  0  0  0  0  0  0  0  0  0  0  0
    5.0152   -0.2404    1.2820 H   0  0  0  0  0  0  0  0  0  0  0  0
    5.0152   -1.2950   -0.1332 H   0  0  0  0  0  0  0  0  0  0  0  0
    4.7789   -3.2976    1.3578 H   0  0  0  0  0  0  0  0  0  0  0  0
    4.7789   -2.2415    2.7748 H   0  0  0  0  0  0  0  0  0  0  0  0
    7.0463   -1.3940    2.1389 H   0  0  0  0  0  0  0  0  0  0  0  0
    7.0463   -2.4460    0.7274 H   0  0  0  0  0  0  0  0  0  0  0  0
    6.9143   -4.4562    2.2104 H   0  0  0  0  0  0  0  0  0  0  0  0
    6.9143   -3.3898    3.6414 H   0  0  0  0  0  0  0  0  0  0  0  0
   11.0880   -5.2789    3.9364 H   0  0  0  0  0  0  0  0  0  0  0  0
   11.1257   -3.5160    3.7446 H   0  0  0  0  0  0  0  0  0  0  0  0
   11.1257   -4.5912    2.3019 H   0  0  0  0  0  0  0  0  0  0  0  0
  1  2  1  0  0  0  0
  1 12  1  0  0  0  0
  1 13  1  0  0  0  0
  1 14  1  0  0  0  0
  2  3  1  0  0  0  0
  2 15  1  0  0  0  0
  2 16  1  0  0  0  0
  3  4  1  0  0  0  0
  3 17  1  0  0  0  0
  3 18  1  0  0  0  0
  4  5  1  0  0  0  0
  4 19  1  0  0  0  0
  4 20  1  0  0  0  0
  5  6  1  0  0  0  0
  5 21  1  0  0  0  0
  5 22  1  0  0  0  0
  6  7  1  0  0  0  0
  6 23  1  0  0  0  0
  6 24  1  0  0  0  0
  7  8  1  0  0  0  0
  7 25  1  0  0  0  0
  7 26  1  0  0  0  0
  8  9  2  0  0  0  0
  8 10  1  0  0  0  0
 10 11  1  0  0  0  0
 11 27  1  0  0  0  0
 11 28  1  0  0  0  0
 11 29  1  0  0  0  0
M  END
$$$$
