
 OpenBabel07122215493D

 40 39  0  0  0  0  0  0  0  0999 V2000
    1.0804   -0.0583   -0.0609 C   0  0  0  0  0  0  0  0  0  0  0  0
    2.6116   -0.0311   -0.0103 C   0  0  0  0  0  0  0  0  0  0  0  0
    3.1150    1.1590   -0.8197 C   0  0  0  0  0  0  0  0  0  0  0  0
    3.0856    0.0378    1.4365 C   0  0  0  0  0  0  0  0  0  0  0  0
    2.3310    0.0660    2.4053 O   0  0  0  0  0  0  0  0  0  0  0  0
    4.4489    0.0306    1.5295 O   0  0  0  0  0  0  0  0  0  0  0  0
    4.9072    0.0980    2.8878 C   0  0  0  0  0  0  0  0  0  0  0  0
    6.4126    0.1015    2.9332 C   0  0  0  0  0  0  0  0  0  0  0  0
    7.1245    0.1590    4.0799 C   0  0  0  0  0  0  0  0  0  0  0  0
    8.6354    0.1588    4.0706 C   0  0  0  0  0  0  0  0  0  0  0  0
    6.4128    0.2257    5.4220 C   0  0  0  0  0  0  0  0  0  0  0  0
    7.3493    0.2853    6.6197 C   0  0  0  0  0  0  0  0  0  0  0  0
    6.6400    0.3506    7.9347 C   0  0  0  0  0  0  0  0  0  0  0  0
    7.3072    0.4086    9.1012 C   0  0  0  0  0  0  0  0  0  0  0  0
    8.8130    0.4123    9.1764 C   0  0  0  0  0  0  0  0  0  0  0  0
    6.5708    0.4734   10.4066 C   0  0  0  0  0  0  0  0  0  0  0  0
    0.7167   -0.1162   -1.0923 H   0  0  0  0  0  0  0  0  0  0  0  0
    0.6571    0.8450    0.3945 H   0  0  0  0  0  0  0  0  0  0  0  0
    0.6835   -0.9203    0.4858 H   0  0  0  0  0  0  0  0  0  0  0  0
    2.9858   -0.9654   -0.4465 H   0  0  0  0  0  0  0  0  0  0  0  0
    2.7684    2.1029   -0.3847 H   0  0  0  0  0  0  0  0  0  0  0  0
    2.7502    1.1098   -1.8523 H   0  0  0  0  0  0  0  0  0  0  0  0
    4.2081    1.1873   -0.8524 H   0  0  0  0  0  0  0  0  0  0  0  0
    4.5340   -0.7757    3.4360 H   0  0  0  0  0  0  0  0  0  0  0  0
    4.5335    1.0226    3.3449 H   0  0  0  0  0  0  0  0  0  0  0  0
    6.9359    0.0546    1.9821 H   0  0  0  0  0  0  0  0  0  0  0  0
    9.0476    0.1085    3.0594 H   0  0  0  0  0  0  0  0  0  0  0  0
    9.0275   -0.7034    4.6222 H   0  0  0  0  0  0  0  0  0  0  0  0
    9.0274    1.0714    4.5341 H   0  0  0  0  0  0  0  0  0  0  0  0
    5.7669   -0.6555    5.5303 H   0  0  0  0  0  0  0  0  0  0  0  0
    5.7669    1.1134    5.4423 H   0  0  0  0  0  0  0  0  0  0  0  0
    7.9835    1.1757    6.5289 H   0  0  0  0  0  0  0  0  0  0  0  0
    7.9835   -0.6097    6.6176 H   0  0  0  0  0  0  0  0  0  0  0  0
    5.5517    0.3502    7.9264 H   0  0  0  0  0  0  0  0  0  0  0  0
    9.2945    0.3635    8.1941 H   0  0  0  0  0  0  0  0  0  0  0  0
    9.1698   -0.4543    9.7393 H   0  0  0  0  0  0  0  0  0  0  0  0
    9.1698    1.3304    9.6506 H   0  0  0  0  0  0  0  0  0  0  0  0
    5.4844    0.4662   10.2622 H   0  0  0  0  0  0  0  0  0  0  0  0
    6.8272    1.3919   10.9429 H   0  0  0  0  0  0  0  0  0  0  0  0
    6.8272   -0.3874   11.0313 H   0  0  0  0  0  0  0  0  0  0  0  0
  1  2  1  0  0  0  0
  1 17  1  0  0  0  0
  1 18  1  0  0  0  0
  1 19  1  0  0  0  0
  2  3  1  0  0  0  0
  2  4  1  0  0  0  0
  2 20  1  0  0  0  0
  3 21  1  0  0  0  0
  3 22  1  0  0  0  0
  3 23  1  0  0  0  0
  4  5  2  0  0  0  0
  4  6  1  0  0  0  0
  6  7  1  0  0  0  0
  7  8  1  0  0  0  0
  7 24  1  0  0  0  0
  7 25  1  0  0  0  0
  8  9  2  0  0  0  0
  8 26  1  0  0  0  0
  9 10  1  0  0  0  0
  9 11  1  0  0  0  0
 10 27  1  0  0  0  0
 10 28  1  0  0  0  0
 10 29  1  0  0  0  0
 11 12  1  0  0  0  0
 11 30  1  0  0  0  0
 11 31  1  0  0  0  0
 12 13  1  0  0  0  0
 12 32  1  0  0  0  0
 12 33  1  0  0  0  0
 13 14  2  0  0  0  0
 13 34  1  0  0  0  0
 14 15  1  0  0  0  0
 14 16  1  0  0  0  0
 15 35  1  0  0  0  0
 15 36  1  0  0  0  0
 15 37  1  0  0  0  0
 16 38  1  0  0  0  0
 16 39  1  0  0  0  0
 16 40  1  0  0  0  0
M  END
$$$$
