
 OpenBabel07122215493D

 17 17  0  0  0  0  0  0  0  0999 V2000
    2.1631   -0.0258    0.2255 O   0  0  0  0  0  0  0  0  0  0  0  0
    0.9641   -0.0094   -0.0497 C   0  0  0  0  0  0  0  0  0  0  0  0
    0.2033   -1.2882   -0.3280 C   0  0  0  0  0  0  0  0  0  0  0  0
   -1.1916   -1.2433    0.2795 C   0  0  0  0  0  0  0  0  0  0  0  0
   -1.9348    0.0171   -0.1530 C   0  0  0  0  0  0  0  0  0  0  0  0
   -1.1696    1.2625    0.2856 C   0  0  0  0  0  0  0  0  0  0  0  0
    0.2336    1.2918   -0.3044 C   0  0  0  0  0  0  0  0  0  0  0  0
    0.7621   -2.1345    0.0845 H   0  0  0  0  0  0  0  0  0  0  0  0
    0.1430   -1.4127   -1.4146 H   0  0  0  0  0  0  0  0  0  0  0  0
   -1.1222   -1.2693    1.3745 H   0  0  0  0  0  0  0  0  0  0  0  0
   -1.7559   -2.1308   -0.0278 H   0  0  0  0  0  0  0  0  0  0  0  0
   -2.9401    0.0254    0.2814 H   0  0  0  0  0  0  0  0  0  0  0  0
   -2.0518    0.0198   -1.2437 H   0  0  0  0  0  0  0  0  0  0  0  0
   -1.1083    1.2828    1.3811 H   0  0  0  0  0  0  0  0  0  0  0  0
   -1.7164    2.1604   -0.0228 H   0  0  0  0  0  0  0  0  0  0  0  0
    0.8041    2.1146    0.1394 H   0  0  0  0  0  0  0  0  0  0  0  0
    0.1925    1.4486   -1.3877 H   0  0  0  0  0  0  0  0  0  0  0  0
  1  2  2  0  0  0  0
  2  3  1  0  0  0  0
  2  7  1  0  0  0  0
  3  4  1  0  0  0  0
  3  8  1  0  0  0  0
  3  9  1  0  0  0  0
  4  5  1  0  0  0  0
  4 10  1  0  0  0  0
  4 11  1  0  0  0  0
  5  6  1  0  0  0  0
  5 12  1  0  0  0  0
  5 13  1  0  0  0  0
  6  7  1  0  0  0  0
  6 14  1  0  0  0  0
  6 15  1  0  0  0  0
  7 16  1  0  0  0  0
  7 17  1  0  0  0  0
M  END
$$$$
