
 OpenBabel07122215493D

 45 47  0  0  0  0  0  0  0  0999 V2000
    0.9210   -0.0302   -0.0578 C   0  0  0  0  0  0  0  0  0  0  0  0
    2.4511   -0.0040   -0.0597 C   0  0  0  0  0  0  0  0  0  0  0  0
    2.9858    1.4271   -0.1885 C   0  0  0  0  0  0  0  0  0  0  0  0
    2.7130    1.9503   -1.4901 O   0  0  0  0  0  0  0  0  0  0  0  0
    3.4828    1.2781   -2.4898 C   0  0  0  0  0  0  0  0  0  0  0  0
    3.4251   -0.2216   -2.3821 C   0  0  0  0  0  0  0  0  0  0  0  0
    3.8884   -0.9959   -3.4510 C   0  0  0  0  0  0  0  0  0  0  0  0
    3.8603   -2.3722   -3.3456 C   0  0  0  0  0  0  0  0  0  0  0  0
    3.3897   -2.9938   -2.1833 C   0  0  0  0  0  0  0  0  0  0  0  0
    2.9471   -2.2408   -1.1058 C   0  0  0  0  0  0  0  0  0  0  0  0
    2.9656   -0.8493   -1.2024 C   0  0  0  0  0  0  0  0  0  0  0  0
    3.4753   -4.4943   -2.2738 C   0  0  0  0  0  0  0  0  0  0  0  0
    2.1785   -5.1601   -1.7923 C   0  0  0  0  0  0  0  0  0  0  0  0
    4.6525   -4.9943   -1.4242 C   0  0  0  0  0  0  0  0  0  0  0  0
    3.6700   -4.6866   -3.8183 C   0  0  0  0  0  0  0  0  0  0  0  0
    4.4369   -5.9562   -4.1821 C   0  0  0  0  0  0  0  0  0  0  0  0
    4.3339   -3.3773   -4.3669 C   0  0  0  0  0  0  0  0  0  0  0  0
    3.8178   -3.0402   -5.7733 C   0  0  0  0  0  0  0  0  0  0  0  0
    5.8692   -3.4122   -4.3882 C   0  0  0  0  0  0  0  0  0  0  0  0
    0.5278    0.5494    0.7830 H   0  0  0  0  0  0  0  0  0  0  0  0
    0.5403   -1.0537    0.0378 H   0  0  0  0  0  0  0  0  0  0  0  0
    0.5093    0.3863   -0.9839 H   0  0  0  0  0  0  0  0  0  0  0  0
    2.8156   -0.4205    0.8884 H   0  0  0  0  0  0  0  0  0  0  0  0
    4.0661    1.4693    0.0016 H   0  0  0  0  0  0  0  0  0  0  0  0
    2.4990    2.0810    0.5416 H   0  0  0  0  0  0  0  0  0  0  0  0
    4.5265    1.6064   -2.4182 H   0  0  0  0  0  0  0  0  0  0  0  0
    3.0900    1.5879   -3.4644 H   0  0  0  0  0  0  0  0  0  0  0  0
    4.2688   -0.5161   -4.3499 H   0  0  0  0  0  0  0  0  0  0  0  0
    2.5886   -2.7279   -0.2025 H   0  0  0  0  0  0  0  0  0  0  0  0
    2.0286   -5.0058   -0.7169 H   0  0  0  0  0  0  0  0  0  0  0  0
    2.2000   -6.2393   -1.9713 H   0  0  0  0  0  0  0  0  0  0  0  0
    1.2984   -4.7471   -2.2998 H   0  0  0  0  0  0  0  0  0  0  0  0
    4.4972   -4.7851   -0.3609 H   0  0  0  0  0  0  0  0  0  0  0  0
    5.5942   -4.5116   -1.6958 H   0  0  0  0  0  0  0  0  0  0  0  0
    4.7875   -6.0750   -1.5302 H   0  0  0  0  0  0  0  0  0  0  0  0
    2.6689   -4.7695   -4.2736 H   0  0  0  0  0  0  0  0  0  0  0  0
    5.4491   -5.9503   -3.7653 H   0  0  0  0  0  0  0  0  0  0  0  0
    4.5306   -6.0575   -5.2668 H   0  0  0  0  0  0  0  0  0  0  0  0
    3.9282   -6.8428   -3.7937 H   0  0  0  0  0  0  0  0  0  0  0  0
    2.7293   -2.9088   -5.7862 H   0  0  0  0  0  0  0  0  0  0  0  0
    4.0738   -3.8308   -6.4855 H   0  0  0  0  0  0  0  0  0  0  0  0
    4.2574   -2.1068   -6.1450 H   0  0  0  0  0  0  0  0  0  0  0  0
    6.2944   -3.6247   -3.4047 H   0  0  0  0  0  0  0  0  0  0  0  0
    6.2891   -2.4515   -4.7030 H   0  0  0  0  0  0  0  0  0  0  0  0
    6.2373   -4.1748   -5.0820 H   0  0  0  0  0  0  0  0  0  0  0  0
  1  2  1  0  0  0  0
  1 20  1  0  0  0  0
  1 21  1  0  0  0  0
  1 22  1  0  0  0  0
  2  3  1  0  0  0  0
  2 11  1  0  0  0  0
  2 23  1  0  0  0  0
  3  4  1  0  0  0  0
  3 24  1  0  0  0  0
  3 25  1  0  0  0  0
  4  5  1  0  0  0  0
  5  6  1  0  0  0  0
  5 26  1  0  0  0  0
  5 27  1  0  0  0  0
  6  7  1  0  0  0  0
  6 11  2  0  0  0  0
  7  8  2  0  0  0  0
  7 28  1  0  0  0  0
  8  9  1  0  0  0  0
  8 17  1  0  0  0  0
  9 10  2  0  0  0  0
  9 12  1  0  0  0  0
 10 11  1  0  0  0  0
 10 29  1  0  0  0  0
 12 13  1  0  0  0  0
 12 14  1  0  0  0  0
 12 15  1  0  0  0  0
 13 30  1  0  0  0  0
 13 31  1  0  0  0  0
 13 32  1  0  0  0  0
 14 33  1  0  0  0  0
 14 34  1  0  0  0  0
 14 35  1  0  0  0  0
 15 16  1  0  0  0  0
 15 17  1  0  0  0  0
 15 36  1  0  0  0  0
 16 37  1  0  0  0  0
 16 38  1  0  0  0  0
 16 39  1  0  0  0  0
 17 18  1  0  0  0  0
 17 19  1  0  0  0  0
 18 40  1  0  0  0  0
 18 41  1  0  0  0  0
 18 42  1  0  0  0  0
 19 43  1  0  0  0  0
 19 44  1  0  0  0  0
 19 45  1  0  0  0  0
M  END
$$$$
