
 OpenBabel07122215493D

 20 20  0  0  0  0  0  0  0  0999 V2000
    1.1019    0.0901    0.0757 C   0  0  0  0  0  0  0  0  0  0  0  0
    2.5247    0.0944    0.0277 O   0  0  0  0  0  0  0  0  0  0  0  0
    3.1325    0.4631    1.2004 C   0  0  0  0  0  0  0  0  0  0  0  0
    2.7637   -0.0689    2.4398 C   0  0  0  0  0  0  0  0  0  0  0  0
    3.4515    0.2955    3.6071 C   0  0  0  0  0  0  0  0  0  0  0  0
    3.0155   -0.2273    4.9443 C   0  0  0  0  0  0  0  0  0  0  0  0
    4.5450    1.1636    3.5150 C   0  0  0  0  0  0  0  0  0  0  0  0
    4.9316    1.6859    2.2788 C   0  0  0  0  0  0  0  0  0  0  0  0
    4.2188    1.3399    1.1301 C   0  0  0  0  0  0  0  0  0  0  0  0
    4.5719    1.8783   -0.0785 O   0  0  0  0  0  0  0  0  0  0  0  0
    0.7371   -0.1829   -0.9195 H   0  0  0  0  0  0  0  0  0  0  0  0
    0.7165    1.0864    0.3168 H   0  0  0  0  0  0  0  0  0  0  0  0
    0.7102   -0.6556    0.7737 H   0  0  0  0  0  0  0  0  0  0  0  0
    1.9550   -0.7881    2.5095 H   0  0  0  0  0  0  0  0  0  0  0  0
    2.1549   -0.8979    4.8511 H   0  0  0  0  0  0  0  0  0  0  0  0
    2.7184    0.6065    5.5889 H   0  0  0  0  0  0  0  0  0  0  0  0
    3.8271   -0.7839    5.4225 H   0  0  0  0  0  0  0  0  0  0  0  0
    5.1026    1.4383    4.4084 H   0  0  0  0  0  0  0  0  0  0  0  0
    5.7834    2.3561    2.2319 H   0  0  0  0  0  0  0  0  0  0  0  0
    5.2991    2.5040    0.0572 H   0  0  0  0  0  0  0  0  0  0  0  0
  1  2  1  0  0  0  0
  1 11  1  0  0  0  0
  1 12  1  0  0  0  0
  1 13  1  0  0  0  0
  2  3  1  0  0  0  0
  3  4  1  0  0  0  0
  3  9  2  0  0  0  0
  4  5  2  0  0  0  0
  4 14  1  0  0  0  0
  5  6  1  0  0  0  0
  5  7  1  0  0  0  0
  6 15  1  0  0  0  0
  6 16  1  0  0  0  0
  6 17  1  0  0  0  0
  7  8  2  0  0  0  0
  7 18  1  0  0  0  0
  8  9  1  0  0  0  0
  8 19  1  0  0  0  0
  9 10  1  0  0  0  0
 10 20  1  0  0  0  0
M  END
$$$$
