
 OpenBabel07122215493D

 35 36  0  0  0  0  0  0  0  0999 V2000
    0.7670    0.0713    0.0601 C   0  0  0  0  0  0  0  0  0  0  0  0
    2.2723   -0.0593    0.1433 C   0  0  0  0  0  0  0  0  0  0  0  0
    3.0589    1.1518    0.7173 C   0  0  0  0  0  0  0  0  0  0  0  0
    2.1650    2.0062    1.4400 O   0  0  0  0  0  0  0  0  0  0  0  0
    3.9243    2.0069   -0.3087 C   0  0  0  0  0  0  0  0  0  0  0  0
    3.7441    1.6414   -1.7924 C   0  0  0  0  0  0  0  0  0  0  0  0
    3.6319    3.5320   -0.2389 C   0  0  0  0  0  0  0  0  0  0  0  0
    5.3785    1.7358    0.2129 C   0  0  0  0  0  0  0  0  0  0  0  0
    5.7999    0.2656    0.0030 C   0  0  0  0  0  0  0  0  0  0  0  0
    5.0017   -0.4900    1.0710 C   0  0  0  0  0  0  0  0  0  0  0  0
    4.1603    0.6340    1.7276 C   0  0  0  0  0  0  0  0  0  0  0  0
    3.6303    0.2884    3.1136 C   0  0  0  0  0  0  0  0  0  0  0  0
    5.1987    1.7627    1.7357 C   0  0  0  0  0  0  0  0  0  0  0  0
    0.3629   -0.8149   -0.4404 H   0  0  0  0  0  0  0  0  0  0  0  0
    0.4602    0.9558   -0.5004 H   0  0  0  0  0  0  0  0  0  0  0  0
    0.3386    0.1036    1.0670 H   0  0  0  0  0  0  0  0  0  0  0  0
    2.6561   -0.3659   -0.8313 H   0  0  0  0  0  0  0  0  0  0  0  0
    2.4291   -0.9360    0.7812 H   0  0  0  0  0  0  0  0  0  0  0  0
    1.5341    2.3868    0.8123 H   0  0  0  0  0  0  0  0  0  0  0  0
    2.7085    1.8183   -2.1052 H   0  0  0  0  0  0  0  0  0  0  0  0
    3.9792    0.6027   -2.0275 H   0  0  0  0  0  0  0  0  0  0  0  0
    4.3934    2.2538   -2.4284 H   0  0  0  0  0  0  0  0  0  0  0  0
    2.6171    3.7505   -0.5922 H   0  0  0  0  0  0  0  0  0  0  0  0
    4.3227    4.0899   -0.8834 H   0  0  0  0  0  0  0  0  0  0  0  0
    3.7264    3.9502    0.7669 H   0  0  0  0  0  0  0  0  0  0  0  0
    6.1209    2.4438   -0.1650 H   0  0  0  0  0  0  0  0  0  0  0  0
    6.8715    0.1336    0.1864 H   0  0  0  0  0  0  0  0  0  0  0  0
    5.6012   -0.1138   -1.0008 H   0  0  0  0  0  0  0  0  0  0  0  0
    5.6788   -0.9543    1.7969 H   0  0  0  0  0  0  0  0  0  0  0  0
    4.4268   -1.3054    0.6263 H   0  0  0  0  0  0  0  0  0  0  0  0
    2.8516   -0.4793    3.0620 H   0  0  0  0  0  0  0  0  0  0  0  0
    3.1965    1.1665    3.6067 H   0  0  0  0  0  0  0  0  0  0  0  0
    4.4271   -0.0839    3.7647 H   0  0  0  0  0  0  0  0  0  0  0  0
    6.1150    1.4918    2.2761 H   0  0  0  0  0  0  0  0  0  0  0  0
    4.8287    2.7076    2.1401 H   0  0  0  0  0  0  0  0  0  0  0  0
  1  2  1  0  0  0  0
  1 14  1  0  0  0  0
  1 15  1  0  0  0  0
  1 16  1  0  0  0  0
  2  3  1  0  0  0  0
  2 17  1  0  0  0  0
  2 18  1  0  0  0  0
  3  4  1  0  0  0  0
  3  5  1  0  0  0  0
  3 11  1  0  0  0  0
  4 19  1  0  0  0  0
  5  6  1  0  0  0  0
  5  7  1  0  0  0  0
  5  8  1  0  0  0  0
  6 20  1  0  0  0  0
  6 21  1  0  0  0  0
  6 22  1  0  0  0  0
  7 23  1  0  0  0  0
  7 24  1  0  0  0  0
  7 25  1  0  0  0  0
  8  9  1  0  0  0  0
  8 13  1  0  0  0  0
  8 26  1  0  0  0  0
  9 10  1  0  0  0  0
  9 27  1  0  0  0  0
  9 28  1  0  0  0  0
 10 11  1  0  0  0  0
 10 29  1  0  0  0  0
 10 30  1  0  0  0  0
 11 12  1  0  0  0  0
 11 13  1  0  0  0  0
 12 31  1  0  0  0  0
 12 32  1  0  0  0  0
 12 33  1  0  0  0  0
 13 34  1  0  0  0  0
 13 35  1  0  0  0  0
M  END
$$$$
