
 OpenBabel07122215493D

 24 24  0  0  1  0  0  0  0  0999 V2000
    3.4232   -0.4582    2.9626 C   0  0  0  0  0  0  0  0  0  0  0  0
    2.6971    0.8100    2.4895 C   0  0  0  0  0  0  0  0  0  0  0  0
    3.0698    1.0844    1.0159 C   0  0  2  0  0  0  0  0  0  0  0  0
    2.3892    0.0591    0.0876 C   0  0  0  0  0  0  0  0  0  0  0  0
    2.5969    0.0830   -1.2952 C   0  0  0  0  0  0  0  0  0  0  0  0
    1.8745   -0.7813   -2.1281 C   0  0  0  0  0  0  0  0  0  0  0  0
    1.0231   -1.7506   -1.5937 C   0  0  0  0  0  0  0  0  0  0  0  0
    0.8504   -1.8335   -0.2268 C   0  0  0  0  0  0  0  0  0  0  0  0
    1.4934   -0.9148    0.5866 C   0  0  0  0  0  0  0  0  0  0  0  0
    4.6025    1.1272    0.9082 C   0  0  0  0  0  0  0  0  0  0  0  0
    5.2875    0.3764    0.2160 O   0  0  0  0  0  0  0  0  0  0  0  0
    5.1994    2.0562    1.6981 O   0  0  0  0  0  0  0  0  0  0  0  0
    3.0663   -0.7888    3.9361 H   0  0  0  0  0  0  0  0  0  0  0  0
    4.4989   -0.2782    3.0163 H   0  0  0  0  0  0  0  0  0  0  0  0
    3.3113   -1.2986    2.2683 H   0  0  0  0  0  0  0  0  0  0  0  0
    2.9603    1.6503    3.1396 H   0  0  0  0  0  0  0  0  0  0  0  0
    1.6061    0.7243    2.6009 H   0  0  0  0  0  0  0  0  0  0  0  0
    2.6916    2.0744    0.7184 H   0  0  0  0  0  0  0  0  0  0  0  0
    3.3250    0.7581   -1.7419 H   0  0  0  0  0  0  0  0  0  0  0  0
    1.9731   -0.6982   -3.2061 H   0  0  0  0  0  0  0  0  0  0  0  0
    0.4942   -2.4442   -2.2378 H   0  0  0  0  0  0  0  0  0  0  0  0
    0.2113   -2.5846    0.2283 H   0  0  0  0  0  0  0  0  0  0  0  0
    1.2780   -1.0265    1.6442 H   0  0  0  0  0  0  0  0  0  0  0  0
    4.6127    2.5864    2.2689 H   0  0  0  0  0  0  0  0  0  0  0  0
  1  2  1  0  0  0  0
  1 13  1  0  0  0  0
  1 14  1  0  0  0  0
  1 15  1  0  0  0  0
  2 16  1  0  0  0  0
  2 17  1  0  0  0  0
  3 10  1  0  0  0  0
  3  4  1  0  0  0  0
  3  2  1  0  0  0  0
  3 18  1  6  0  0  0
  4  5  2  0  0  0  0
  4  9  1  0  0  0  0
  5  6  1  0  0  0  0
  5 19  1  0  0  0  0
  6  7  2  0  0  0  0
  6 20  1  0  0  0  0
  7  8  1  0  0  0  0
  7 21  1  0  0  0  0
  8  9  2  0  0  0  0
  8 22  1  0  0  0  0
  9 23  1  0  0  0  0
 10 11  2  0  0  0  0
 10 12  1  0  0  0  0
 12 24  1  0  0  0  0
M  END
$$$$
