
 OpenBabel07122215493D

 43 44  0  0  0  0  0  0  0  0999 V2000
    0.8572   -0.2080    0.0466 C   0  0  0  0  0  0  0  0  0  0  0  0
    2.3663   -0.0469   -0.0465 C   0  0  0  0  0  0  0  0  0  0  0  0
    2.9472   -1.3718   -0.5532 C   0  0  0  0  0  0  0  0  0  0  0  0
    4.4288   -1.3064   -0.8094 C   0  0  0  0  0  0  0  0  0  0  0  0
    5.1070   -0.1482   -0.8835 C   0  0  0  0  0  0  0  0  0  0  0  0
    4.3973    1.1919   -0.7109 C   0  0  0  0  0  0  0  0  0  0  0  0
    2.8685    1.1230   -0.9377 C   0  0  0  0  0  0  0  0  0  0  0  0
    2.6108    0.8987   -2.4473 C   0  0  0  0  0  0  0  0  0  0  0  0
    2.2758    2.4887   -0.5395 C   0  0  0  0  0  0  0  0  0  0  0  0
    2.9798    3.4087   -0.0935 O   0  0  0  0  0  0  0  0  0  0  0  0
    0.7988    2.7320   -0.7029 C   0  0  0  0  0  0  0  0  0  0  0  0
    6.5937   -0.0873   -1.1768 C   0  0  0  0  0  0  0  0  0  0  0  0
    7.3279   -1.4412   -1.3207 C   0  0  0  0  0  0  0  0  0  0  0  0
    6.5272   -2.7235   -1.2680 C   0  0  0  0  0  0  0  0  0  0  0  0
    5.0388   -2.6482   -1.0149 C   0  0  0  0  0  0  0  0  0  0  0  0
    6.7679    0.6166   -2.5404 C   0  0  0  0  0  0  0  0  0  0  0  0
    7.2650    0.6487    0.0006 C   0  0  0  0  0  0  0  0  0  0  0  0
    0.5833   -1.0974    0.6189 H   0  0  0  0  0  0  0  0  0  0  0  0
    0.4130   -0.2986   -0.9489 H   0  0  0  0  0  0  0  0  0  0  0  0
    0.4141    0.6344    0.5781 H   0  0  0  0  0  0  0  0  0  0  0  0
    2.7354    0.1141    0.9786 H   0  0  0  0  0  0  0  0  0  0  0  0
    2.4511   -1.6708   -1.4877 H   0  0  0  0  0  0  0  0  0  0  0  0
    2.7275   -2.1637    0.1725 H   0  0  0  0  0  0  0  0  0  0  0  0
    4.8005    1.9494   -1.3913 H   0  0  0  0  0  0  0  0  0  0  0  0
    4.6186    1.5634    0.2999 H   0  0  0  0  0  0  0  0  0  0  0  0
    3.1044    0.0017   -2.8367 H   0  0  0  0  0  0  0  0  0  0  0  0
    2.9895    1.7376   -3.0415 H   0  0  0  0  0  0  0  0  0  0  0  0
    1.5462    0.7913   -2.6653 H   0  0  0  0  0  0  0  0  0  0  0  0
    0.2983    1.8994   -1.1950 H   0  0  0  0  0  0  0  0  0  0  0  0
    0.6317    3.6081   -1.3289 H   0  0  0  0  0  0  0  0  0  0  0  0
    0.3601    2.8770    0.2887 H   0  0  0  0  0  0  0  0  0  0  0  0
    8.1317   -1.5173   -0.5763 H   0  0  0  0  0  0  0  0  0  0  0  0
    7.8767   -1.4598   -2.2729 H   0  0  0  0  0  0  0  0  0  0  0  0
    6.9756   -3.3697   -0.5036 H   0  0  0  0  0  0  0  0  0  0  0  0
    6.6790   -3.2519   -2.2169 H   0  0  0  0  0  0  0  0  0  0  0  0
    4.8123   -3.2624   -0.1348 H   0  0  0  0  0  0  0  0  0  0  0  0
    4.5264   -3.1180   -1.8638 H   0  0  0  0  0  0  0  0  0  0  0  0
    6.2433    0.0378   -3.3158 H   0  0  0  0  0  0  0  0  0  0  0  0
    7.8212    0.6757   -2.8287 H   0  0  0  0  0  0  0  0  0  0  0  0
    6.3740    1.6337   -2.5798 H   0  0  0  0  0  0  0  0  0  0  0  0
    7.0815    0.0930    0.9335 H   0  0  0  0  0  0  0  0  0  0  0  0
    6.8878    1.6641    0.1522 H   0  0  0  0  0  0  0  0  0  0  0  0
    8.3487    0.7157   -0.1308 H   0  0  0  0  0  0  0  0  0  0  0  0
  1  2  1  0  0  0  0
  1 18  1  0  0  0  0
  1 19  1  0  0  0  0
  1 20  1  0  0  0  0
  2  3  1  0  0  0  0
  2  7  1  0  0  0  0
  2 21  1  0  0  0  0
  3  4  1  0  0  0  0
  3 22  1  0  0  0  0
  3 23  1  0  0  0  0
  4  5  2  0  0  0  0
  4 15  1  0  0  0  0
  5  6  1  0  0  0  0
  5 12  1  0  0  0  0
  6  7  1  0  0  0  0
  6 24  1  0  0  0  0
  6 25  1  0  0  0  0
  7  8  1  0  0  0  0
  7  9  1  0  0  0  0
  8 26  1  0  0  0  0
  8 27  1  0  0  0  0
  8 28  1  0  0  0  0
  9 10  2  0  0  0  0
  9 11  1  0  0  0  0
 11 29  1  0  0  0  0
 11 30  1  0  0  0  0
 11 31  1  0  0  0  0
 12 13  1  0  0  0  0
 12 16  1  0  0  0  0
 12 17  1  0  0  0  0
 13 14  1  0  0  0  0
 13 32  1  0  0  0  0
 13 33  1  0  0  0  0
 14 15  1  0  0  0  0
 14 34  1  0  0  0  0
 14 35  1  0  0  0  0
 15 36  1  0  0  0  0
 15 37  1  0  0  0  0
 16 38  1  0  0  0  0
 16 39  1  0  0  0  0
 16 40  1  0  0  0  0
 17 41  1  0  0  0  0
 17 42  1  0  0  0  0
 17 43  1  0  0  0  0
M  END
$$$$
