
 OpenBabel07122215493D

 31 30  0  0  0  0  0  0  0  0999 V2000
    0.9605   -0.0590   -0.0390 C   0  0  0  0  0  0  0  0  0  0  0  0
    2.4751   -0.0595   -0.0460 C   0  0  0  0  0  0  0  0  0  0  0  0
    3.0061   -0.6606   -1.3400 C   0  0  0  0  0  0  0  0  0  0  0  0
    4.5271   -0.6705   -1.3148 C   0  0  0  0  0  0  0  0  0  0  0  0
    5.0785   -1.3041   -2.5874 C   0  0  0  0  0  0  0  0  0  0  0  0
    6.6152   -1.3280   -2.6379 C   0  0  0  0  0  0  0  0  0  0  0  0
    7.2763   -2.2854   -1.2043 S   0  0  0  0  0  0  0  0  0  0  0  0
    7.1439   -1.8922   -3.9808 C   0  0  0  0  0  0  0  0  0  0  0  0
    6.6221   -1.0827   -5.1834 C   0  0  0  0  0  0  0  0  0  0  0  0
    8.6818   -1.9084   -4.0199 C   0  0  0  0  0  0  0  0  0  0  0  0
    9.1446   -2.4696   -5.2436 O   0  0  0  0  0  0  0  0  0  0  0  0
    0.5883    0.3731    0.8935 H   0  0  0  0  0  0  0  0  0  0  0  0
    0.5736   -1.0792   -0.1262 H   0  0  0  0  0  0  0  0  0  0  0  0
    0.5704    0.5302   -0.8747 H   0  0  0  0  0  0  0  0  0  0  0  0
    2.8452   -0.6354    0.8106 H   0  0  0  0  0  0  0  0  0  0  0  0
    2.8466    0.9656    0.0675 H   0  0  0  0  0  0  0  0  0  0  0  0
    2.6480   -0.0837   -2.2014 H   0  0  0  0  0  0  0  0  0  0  0  0
    2.6325   -1.6855   -1.4576 H   0  0  0  0  0  0  0  0  0  0  0  0
    4.8551   -1.2200   -0.4275 H   0  0  0  0  0  0  0  0  0  0  0  0
    4.9059    0.3549   -1.2247 H   0  0  0  0  0  0  0  0  0  0  0  0
    4.6893   -0.7108   -3.4220 H   0  0  0  0  0  0  0  0  0  0  0  0
    4.6771   -2.3180   -2.7156 H   0  0  0  0  0  0  0  0  0  0  0  0
    6.9830   -0.3017   -2.5173 H   0  0  0  0  0  0  0  0  0  0  0  0
    6.6759   -3.4494   -1.4915 H   0  0  0  0  0  0  0  0  0  0  0  0
    6.7777   -2.9200   -4.1116 H   0  0  0  0  0  0  0  0  0  0  0  0
    6.9292   -0.0338   -5.1098 H   0  0  0  0  0  0  0  0  0  0  0  0
    5.5319   -1.1144   -5.2620 H   0  0  0  0  0  0  0  0  0  0  0  0
    7.0025   -1.4835   -6.1280 H   0  0  0  0  0  0  0  0  0  0  0  0
    9.1145   -2.5079   -3.2151 H   0  0  0  0  0  0  0  0  0  0  0  0
    9.0798   -0.8925   -3.9331 H   0  0  0  0  0  0  0  0  0  0  0  0
    8.8105   -3.3779   -5.2859 H   0  0  0  0  0  0  0  0  0  0  0  0
  1  2  1  0  0  0  0
  1 12  1  0  0  0  0
  1 13  1  0  0  0  0
  1 14  1  0  0  0  0
  2  3  1  0  0  0  0
  2 15  1  0  0  0  0
  2 16  1  0  0  0  0
  3  4  1  0  0  0  0
  3 17  1  0  0  0  0
  3 18  1  0  0  0  0
  4  5  1  0  0  0  0
  4 19  1  0  0  0  0
  4 20  1  0  0  0  0
  5  6  1  0  0  0  0
  5 21  1  0  0  0  0
  5 22  1  0  0  0  0
  6  7  1  0  0  0  0
  6  8  1  0  0  0  0
  6 23  1  0  0  0  0
  7 24  1  0  0  0  0
  8  9  1  0  0  0  0
  8 10  1  0  0  0  0
  8 25  1  0  0  0  0
  9 26  1  0  0  0  0
  9 27  1  0  0  0  0
  9 28  1  0  0  0  0
 10 11  1  0  0  0  0
 10 29  1  0  0  0  0
 10 30  1  0  0  0  0
 11 31  1  0  0  0  0
M  END
$$$$
