
 OpenBabel07122215493D

 17 18  0  0  0  0  0  0  0  0999 V2000
    0.9627   -0.0974    0.1829 O   0  0  0  0  0  0  0  0  0  0  0  0
    2.1846   -0.0262    0.0991 C   0  0  0  0  0  0  0  0  0  0  0  0
    2.9384    1.0332    0.7881 C   0  0  0  0  0  0  0  0  0  0  0  0
    3.9666    1.6830    0.0790 C   0  0  0  0  0  0  0  0  0  0  0  0
    4.6391    2.7631    0.6569 C   0  0  0  0  0  0  0  0  0  0  0  0
    4.2783    3.1357    1.9354 C   0  0  0  0  0  0  0  0  0  0  0  0
    4.8107    4.1720    2.6372 O   0  0  0  0  0  0  0  0  0  0  0  0
    4.0106    4.1266    3.8372 C   0  0  0  0  0  0  0  0  0  0  0  0
    3.1198    2.9911    3.8841 O   0  0  0  0  0  0  0  0  0  0  0  0
    3.3006    2.4692    2.6401 C   0  0  0  0  0  0  0  0  0  0  0  0
    2.6027    1.4118    2.0935 C   0  0  0  0  0  0  0  0  0  0  0  0
    2.7674   -0.7225   -0.5256 H   0  0  0  0  0  0  0  0  0  0  0  0
    4.2138    1.3794   -0.9354 H   0  0  0  0  0  0  0  0  0  0  0  0
    5.4046    3.3053    0.1133 H   0  0  0  0  0  0  0  0  0  0  0  0
    3.4095    5.0425    3.8932 H   0  0  0  0  0  0  0  0  0  0  0  0
    4.6796    4.0962    4.7050 H   0  0  0  0  0  0  0  0  0  0  0  0
    1.8235    0.9036    2.6514 H   0  0  0  0  0  0  0  0  0  0  0  0
  1  2  2  0  0  0  0
  2  3  1  0  0  0  0
  2 12  1  0  0  0  0
  3  4  1  0  0  0  0
  3 11  2  0  0  0  0
  4  5  2  0  0  0  0
  4 13  1  0  0  0  0
  5  6  1  0  0  0  0
  5 14  1  0  0  0  0
  6  7  1  0  0  0  0
  6 10  2  0  0  0  0
  7  8  1  0  0  0  0
  8  9  1  0  0  0  0
  8 15  1  0  0  0  0
  8 16  1  0  0  0  0
  9 10  1  0  0  0  0
 10 11  1  0  0  0  0
 11 17  1  0  0  0  0
M  END
$$$$
