
 OpenBabel07122215493D

 30 29  0  0  0  0  0  0  0  0999 V2000
    0.9089   -0.0326   -0.0573 C   0  0  0  0  0  0  0  0  0  0  0  0
    2.4362   -0.0502   -0.0235 C   0  0  0  0  0  0  0  0  0  0  0  0
    2.9181   -0.4237    1.3801 C   0  0  0  0  0  0  0  0  0  0  0  0
    2.9671   -1.0199   -1.0902 C   0  0  0  0  0  0  0  0  0  0  0  0
    4.4913   -1.0385   -1.1416 C   0  0  0  0  0  0  0  0  0  0  0  0
    4.9989   -2.0145   -2.1915 C   0  0  0  0  0  0  0  0  0  0  0  0
    6.5227   -2.0248   -2.1858 C   0  0  0  0  0  0  0  0  0  0  0  0
    7.0585   -3.0039   -3.2175 C   0  0  0  0  0  0  0  0  0  0  0  0
    8.5780   -3.0105   -3.2168 C   0  0  0  0  0  0  0  0  0  0  0  0
    9.0507   -3.9260   -4.1945 O   0  0  0  0  0  0  0  0  0  0  0  0
    0.5139    0.6752    0.6784 H   0  0  0  0  0  0  0  0  0  0  0  0
    0.4988   -1.0229    0.1687 H   0  0  0  0  0  0  0  0  0  0  0  0
    0.5433    0.2687   -1.0445 H   0  0  0  0  0  0  0  0  0  0  0  0
    2.7967    0.9599   -0.2570 H   0  0  0  0  0  0  0  0  0  0  0  0
    2.6124   -1.4427    1.6407 H   0  0  0  0  0  0  0  0  0  0  0  0
    2.5085    0.2614    2.1280 H   0  0  0  0  0  0  0  0  0  0  0  0
    4.0074   -0.3654    1.4643 H   0  0  0  0  0  0  0  0  0  0  0  0
    2.5798   -0.7269   -2.0749 H   0  0  0  0  0  0  0  0  0  0  0  0
    2.5932   -2.0328   -0.8937 H   0  0  0  0  0  0  0  0  0  0  0  0
    4.9028   -1.3431   -0.1741 H   0  0  0  0  0  0  0  0  0  0  0  0
    4.8665   -0.0297   -1.3527 H   0  0  0  0  0  0  0  0  0  0  0  0
    4.6250   -1.7311   -3.1820 H   0  0  0  0  0  0  0  0  0  0  0  0
    4.6208   -3.0208   -1.9728 H   0  0  0  0  0  0  0  0  0  0  0  0
    6.8870   -2.3023   -1.1883 H   0  0  0  0  0  0  0  0  0  0  0  0
    6.8993   -1.0160   -2.3955 H   0  0  0  0  0  0  0  0  0  0  0  0
    6.6902   -2.7423   -4.2170 H   0  0  0  0  0  0  0  0  0  0  0  0
    6.6825   -4.0137   -3.0115 H   0  0  0  0  0  0  0  0  0  0  0  0
    8.9721   -3.3083   -2.2397 H   0  0  0  0  0  0  0  0  0  0  0  0
    8.9699   -2.0178   -3.4571 H   0  0  0  0  0  0  0  0  0  0  0  0
    8.6951   -4.7992   -3.9697 H   0  0  0  0  0  0  0  0  0  0  0  0
  1  2  1  0  0  0  0
  1 11  1  0  0  0  0
  1 12  1  0  0  0  0
  1 13  1  0  0  0  0
  2  3  1  0  0  0  0
  2  4  1  0  0  0  0
  2 14  1  0  0  0  0
  3 15  1  0  0  0  0
  3 16  1  0  0  0  0
  3 17  1  0  0  0  0
  4  5  1  0  0  0  0
  4 18  1  0  0  0  0
  4 19  1  0  0  0  0
  5  6  1  0  0  0  0
  5 20  1  0  0  0  0
  5 21  1  0  0  0  0
  6  7  1  0  0  0  0
  6 22  1  0  0  0  0
  6 23  1  0  0  0  0
  7  8  1  0  0  0  0
  7 24  1  0  0  0  0
  7 25  1  0  0  0  0
  8  9  1  0  0  0  0
  8 26  1  0  0  0  0
  8 27  1  0  0  0  0
  9 10  1  0  0  0  0
  9 28  1  0  0  0  0
  9 29  1  0  0  0  0
 10 30  1  0  0  0  0
M  END
$$$$
