
 OpenBabel07122215493D

 10 10  0  0  0  0  0  0  0  0999 V2000
    0.7660    1.0937   -0.0005 C   0  0  0  0  0  0  0  0  0  0  0  0
   -0.6164    1.1839    0.0029 C   0  0  0  0  0  0  0  0  0  0  0  0
   -1.4144    0.0917    0.0033 N   0  0  0  0  0  0  0  0  0  0  0  0
   -0.7652   -1.0951    0.0020 C   0  0  0  0  0  0  0  0  0  0  0  0
    0.6171   -1.1853    0.0018 C   0  0  0  0  0  0  0  0  0  0  0  0
    1.4152   -0.0931   -0.0004 N   0  0  0  0  0  0  0  0  0  0  0  0
    1.3916    1.9786   -0.0034 H   0  0  0  0  0  0  0  0  0  0  0  0
   -1.1216    2.1427    0.0058 H   0  0  0  0  0  0  0  0  0  0  0  0
   -1.3909   -1.9800    0.0012 H   0  0  0  0  0  0  0  0  0  0  0  0
    1.1224   -2.1441    0.0037 H   0  0  0  0  0  0  0  0  0  0  0  0
  1  2  1  0  0  0  0
  1  6  2  0  0  0  0
  1  7  1  0  0  0  0
  2  3  2  0  0  0  0
  2  8  1  0  0  0  0
  3  4  1  0  0  0  0
  4  5  2  0  0  0  0
  4  9  1  0  0  0  0
  5  6  1  0  0  0  0
  5 10  1  0  0  0  0
M  END
$$$$
