
 OpenBabel07122215493D

 27 26  0  0  0  0  0  0  0  0999 V2000
    1.0387    0.0180   -0.0857 C   0  0  0  0  0  0  0  0  0  0  0  0
    2.5559    0.0199   -0.0831 C   0  0  0  0  0  0  0  0  0  0  0  0
    3.0941   -0.9848    0.9255 C   0  0  0  0  0  0  0  0  0  0  0  0
    4.6189   -0.9782    0.9358 C   0  0  0  0  0  0  0  0  0  0  0  0
    5.1275   -1.9980    1.9427 C   0  0  0  0  0  0  0  0  0  0  0  0
    6.6503   -2.0515    1.9701 C   0  0  0  0  0  0  0  0  0  0  0  0
    7.1651   -3.0892    2.9695 C   0  0  0  0  0  0  0  0  0  0  0  0
    6.7087   -4.5048    2.6370 C   0  0  0  0  0  0  0  0  0  0  0  0
    8.5915   -3.0551    2.9726 O   0  0  0  0  0  0  0  0  0  0  0  0
    0.6612    0.7448   -0.8100 H   0  0  0  0  0  0  0  0  0  0  0  0
    0.6481    0.2816    0.9024 H   0  0  0  0  0  0  0  0  0  0  0  0
    0.6512   -0.9698   -0.3551 H   0  0  0  0  0  0  0  0  0  0  0  0
    2.9210    1.0237    0.1623 H   0  0  0  0  0  0  0  0  0  0  0  0
    2.9243   -0.2263   -1.0857 H   0  0  0  0  0  0  0  0  0  0  0  0
    2.7301   -1.9901    0.6770 H   0  0  0  0  0  0  0  0  0  0  0  0
    2.7174   -0.7472    1.9282 H   0  0  0  0  0  0  0  0  0  0  0  0
    4.9920    0.0203    1.1904 H   0  0  0  0  0  0  0  0  0  0  0  0
    4.9970   -1.2264   -0.0635 H   0  0  0  0  0  0  0  0  0  0  0  0
    4.7177   -2.9752    1.6671 H   0  0  0  0  0  0  0  0  0  0  0  0
    4.7494   -1.7581    2.9440 H   0  0  0  0  0  0  0  0  0  0  0  0
    7.0554   -1.0650    2.2313 H   0  0  0  0  0  0  0  0  0  0  0  0
    7.0401   -2.2730    0.9682 H   0  0  0  0  0  0  0  0  0  0  0  0
    6.8320   -2.8254    3.9787 H   0  0  0  0  0  0  0  0  0  0  0  0
    7.0355   -4.7917    1.6316 H   0  0  0  0  0  0  0  0  0  0  0  0
    5.6211   -4.6081    2.6907 H   0  0  0  0  0  0  0  0  0  0  0  0
    7.1454   -5.2239    3.3357 H   0  0  0  0  0  0  0  0  0  0  0  0
    8.8965   -3.2861    2.0822 H   0  0  0  0  0  0  0  0  0  0  0  0
  1  2  1  0  0  0  0
  1 10  1  0  0  0  0
  1 11  1  0  0  0  0
  1 12  1  0  0  0  0
  2  3  1  0  0  0  0
  2 13  1  0  0  0  0
  2 14  1  0  0  0  0
  3  4  1  0  0  0  0
  3 15  1  0  0  0  0
  3 16  1  0  0  0  0
  4  5  1  0  0  0  0
  4 17  1  0  0  0  0
  4 18  1  0  0  0  0
  5  6  1  0  0  0  0
  5 19  1  0  0  0  0
  5 20  1  0  0  0  0
  6  7  1  0  0  0  0
  6 21  1  0  0  0  0
  6 22  1  0  0  0  0
  7  8  1  0  0  0  0
  7  9  1  0  0  0  0
  7 23  1  0  0  0  0
  8 24  1  0  0  0  0
  8 25  1  0  0  0  0
  8 26  1  0  0  0  0
  9 27  1  0  0  0  0
M  END
$$$$
