
 OpenBabel07122215493D

 23 23  0  0  0  0  0  0  0  0999 V2000
    1.0003    0.0425   -0.0406 C   0  0  0  0  0  0  0  0  0  0  0  0
    2.4192   -0.0857    0.0072 O   0  0  0  0  0  0  0  0  0  0  0  0
    3.0538    0.0385   -1.1966 C   0  0  0  0  0  0  0  0  0  0  0  0
    4.2157   -0.7128   -1.3787 C   0  0  0  0  0  0  0  0  0  0  0  0
    4.9728   -0.5843   -2.5527 C   0  0  0  0  0  0  0  0  0  0  0  0
    4.5485    0.2659   -3.5871 C   0  0  0  0  0  0  0  0  0  0  0  0
    5.3132    0.2875   -4.9021 C   0  0  0  0  0  0  0  0  0  0  0  0
    4.7394    1.1610   -5.9894 C   0  0  0  0  0  0  0  0  0  0  0  0
    5.2418    1.2894   -7.2271 C   0  0  0  0  0  0  0  0  0  0  0  0
    3.4000    1.0352   -3.3603 C   0  0  0  0  0  0  0  0  0  0  0  0
    2.6601    0.9245   -2.1874 C   0  0  0  0  0  0  0  0  0  0  0  0
    0.6327    0.0437    0.9891 H   0  0  0  0  0  0  0  0  0  0  0  0
    0.5680   -0.8166   -0.5625 H   0  0  0  0  0  0  0  0  0  0  0  0
    0.6569    0.9779   -0.4929 H   0  0  0  0  0  0  0  0  0  0  0  0
    4.5276   -1.4135   -0.6083 H   0  0  0  0  0  0  0  0  0  0  0  0
    5.8933   -1.1577   -2.6504 H   0  0  0  0  0  0  0  0  0  0  0  0
    5.3348   -0.7454   -5.2768 H   0  0  0  0  0  0  0  0  0  0  0  0
    6.3475    0.5942   -4.7008 H   0  0  0  0  0  0  0  0  0  0  0  0
    3.8448    1.7389   -5.8073 H   0  0  0  0  0  0  0  0  0  0  0  0
    6.1262    0.7579   -7.5465 H   0  0  0  0  0  0  0  0  0  0  0  0
    4.7429    1.9467   -7.9327 H   0  0  0  0  0  0  0  0  0  0  0  0
    3.0317    1.7577   -4.0769 H   0  0  0  0  0  0  0  0  0  0  0  0
    1.7948    1.5678   -2.0867 H   0  0  0  0  0  0  0  0  0  0  0  0
  1  2  1  0  0  0  0
  1 12  1  0  0  0  0
  1 13  1  0  0  0  0
  1 14  1  0  0  0  0
  2  3  1  0  0  0  0
  3  4  1  0  0  0  0
  3 11  2  0  0  0  0
  4  5  2  0  0  0  0
  4 15  1  0  0  0  0
  5  6  1  0  0  0  0
  5 16  1  0  0  0  0
  6  7  1  0  0  0  0
  6 10  2  0  0  0  0
  7  8  1  0  0  0  0
  7 17  1  0  0  0  0
  7 18  1  0  0  0  0
  8  9  2  0  0  0  0
  8 19  1  0  0  0  0
  9 20  1  0  0  0  0
  9 21  1  0  0  0  0
 10 11  1  0  0  0  0
 10 22  1  0  0  0  0
 11 23  1  0  0  0  0
M  END
$$$$
