
 OpenBabel07122215493D

 31 30  0  0  0  0  0  0  0  0999 V2000
    1.0658   -0.0049    0.0451 O   0  0  0  0  0  0  0  0  0  0  0  0
    2.4841    0.0106    0.0626 C   0  0  0  0  0  0  0  0  0  0  0  0
    2.9987   -0.9376   -1.0051 C   0  0  0  0  0  0  0  0  0  0  0  0
    4.5197   -0.9519   -1.0212 C   0  0  0  0  0  0  0  0  0  0  0  0
    5.0368   -1.9020   -2.0910 C   0  0  0  0  0  0  0  0  0  0  0  0
    6.5582   -1.9088   -2.0986 C   0  0  0  0  0  0  0  0  0  0  0  0
    7.0776   -2.8581   -3.1675 C   0  0  0  0  0  0  0  0  0  0  0  0
    8.6003   -2.8638   -3.1740 C   0  0  0  0  0  0  0  0  0  0  0  0
    9.1239   -3.8145   -4.2445 C   0  0  0  0  0  0  0  0  0  0  0  0
   10.6213   -3.8361   -4.2687 C   0  0  0  0  0  0  0  0  0  0  0  0
   11.3105   -4.5985   -5.1273 C   0  0  0  0  0  0  0  0  0  0  0  0
    0.7693    0.6097    0.7372 H   0  0  0  0  0  0  0  0  0  0  0  0
    2.8279   -0.3006    1.0543 H   0  0  0  0  0  0  0  0  0  0  0  0
    2.8279    1.0321   -0.1293 H   0  0  0  0  0  0  0  0  0  0  0  0
    2.6095   -0.6375   -1.9862 H   0  0  0  0  0  0  0  0  0  0  0  0
    2.6095   -1.9473   -0.8229 H   0  0  0  0  0  0  0  0  0  0  0  0
    4.8994   -1.2603   -0.0392 H   0  0  0  0  0  0  0  0  0  0  0  0
    4.8994    0.0596   -1.2114 H   0  0  0  0  0  0  0  0  0  0  0  0
    4.6621   -1.5950   -3.0751 H   0  0  0  0  0  0  0  0  0  0  0  0
    4.6621   -2.9155   -1.9024 H   0  0  0  0  0  0  0  0  0  0  0  0
    6.9338   -2.2156   -1.1146 H   0  0  0  0  0  0  0  0  0  0  0  0
    6.9338   -0.8955   -2.2871 H   0  0  0  0  0  0  0  0  0  0  0  0
    6.7014   -2.5507   -4.1510 H   0  0  0  0  0  0  0  0  0  0  0  0
    6.7014   -3.8710   -2.9784 H   0  0  0  0  0  0  0  0  0  0  0  0
    8.9712   -3.1676   -2.1867 H   0  0  0  0  0  0  0  0  0  0  0  0
    8.9712   -1.8476   -3.3591 H   0  0  0  0  0  0  0  0  0  0  0  0
    8.7459   -3.4985   -5.2245 H   0  0  0  0  0  0  0  0  0  0  0  0
    8.7459   -4.8250   -4.0464 H   0  0  0  0  0  0  0  0  0  0  0  0
   11.1621   -3.2095   -3.5632 H   0  0  0  0  0  0  0  0  0  0  0  0
   10.8019   -5.2351   -5.8440 H   0  0  0  0  0  0  0  0  0  0  0  0
   12.3945   -4.5968   -5.1253 H   0  0  0  0  0  0  0  0  0  0  0  0
  1  2  1  0  0  0  0
  1 12  1  0  0  0  0
  2  3  1  0  0  0  0
  2 13  1  0  0  0  0
  2 14  1  0  0  0  0
  3  4  1  0  0  0  0
  3 15  1  0  0  0  0
  3 16  1  0  0  0  0
  4  5  1  0  0  0  0
  4 17  1  0  0  0  0
  4 18  1  0  0  0  0
  5  6  1  0  0  0  0
  5 19  1  0  0  0  0
  5 20  1  0  0  0  0
  6  7  1  0  0  0  0
  6 21  1  0  0  0  0
  6 22  1  0  0  0  0
  7  8  1  0  0  0  0
  7 23  1  0  0  0  0
  7 24  1  0  0  0  0
  8  9  1  0  0  0  0
  8 25  1  0  0  0  0
  8 26  1  0  0  0  0
  9 10  1  0  0  0  0
  9 27  1  0  0  0  0
  9 28  1  0  0  0  0
 10 11  2  0  0  0  0
 10 29  1  0  0  0  0
 11 30  1  0  0  0  0
 11 31  1  0  0  0  0
M  END
$$$$
