
 OpenBabel07122215493D

 40 39  0  0  0  0  0  0  0  0999 V2000
    0.9160    0.0502    0.0344 C   0  0  0  0  0  0  0  0  0  0  0  0
    2.4320    0.0546    0.0404 C   0  0  0  0  0  0  0  0  0  0  0  0
    2.9554    0.9020    1.1911 C   0  0  0  0  0  0  0  0  0  0  0  0
    4.4754    0.9081    1.1994 C   0  0  0  0  0  0  0  0  0  0  0  0
    4.9887    1.7562    2.3511 C   0  0  0  0  0  0  0  0  0  0  0  0
    6.5073    1.7610    2.3577 C   0  0  0  0  0  0  0  0  0  0  0  0
    7.0197    2.6086    3.5087 C   0  0  0  0  0  0  0  0  0  0  0  0
    8.5383    2.6134    3.5153 C   0  0  0  0  0  0  0  0  0  0  0  0
    9.0522    3.4614    4.6669 C   0  0  0  0  0  0  0  0  0  0  0  0
   10.5723    3.4677    4.6754 C   0  0  0  0  0  0  0  0  0  0  0  0
   11.0953    4.3153    5.8264 C   0  0  0  0  0  0  0  0  0  0  0  0
   12.6162    4.3191    5.8316 C   0  0  0  0  0  0  0  0  0  0  0  0
   13.1477    5.1526    6.9636 C   0  0  0  0  0  0  0  0  0  0  0  0
   14.3502    5.3026    7.1672 O   0  0  0  0  0  0  0  0  0  0  0  0
    0.5421   -0.5588   -0.7926 H   0  0  0  0  0  0  0  0  0  0  0  0
    0.5270    1.0670   -0.0809 H   0  0  0  0  0  0  0  0  0  0  0  0
    0.5270   -0.3617    0.9711 H   0  0  0  0  0  0  0  0  0  0  0  0
    2.8031    0.4494   -0.9127 H   0  0  0  0  0  0  0  0  0  0  0  0
    2.8031   -0.9727    0.1345 H   0  0  0  0  0  0  0  0  0  0  0  0
    2.5828    0.5082    2.1449 H   0  0  0  0  0  0  0  0  0  0  0  0
    2.5828    1.9297    1.0982 H   0  0  0  0  0  0  0  0  0  0  0  0
    4.8531    1.3051    0.2492 H   0  0  0  0  0  0  0  0  0  0  0  0
    4.8531   -0.1171    1.2965 H   0  0  0  0  0  0  0  0  0  0  0  0
    4.6137    1.3607    3.3032 H   0  0  0  0  0  0  0  0  0  0  0  0
    4.6137    2.7827    2.2561 H   0  0  0  0  0  0  0  0  0  0  0  0
    6.8834    2.1572    1.4064 H   0  0  0  0  0  0  0  0  0  0  0  0
    6.8834    0.7350    2.4537 H   0  0  0  0  0  0  0  0  0  0  0  0
    6.6434    2.2124    4.4599 H   0  0  0  0  0  0  0  0  0  0  0  0
    6.6434    3.6345    3.4127 H   0  0  0  0  0  0  0  0  0  0  0  0
    8.9132    3.0088    2.5631 H   0  0  0  0  0  0  0  0  0  0  0  0
    8.9132    1.5868    3.6102 H   0  0  0  0  0  0  0  0  0  0  0  0
    8.6744    3.0644    5.6171 H   0  0  0  0  0  0  0  0  0  0  0  0
    8.6744    4.4866    4.5698 H   0  0  0  0  0  0  0  0  0  0  0  0
   10.9451    3.8619    3.7220 H   0  0  0  0  0  0  0  0  0  0  0  0
   10.9451    2.4402    4.7689 H   0  0  0  0  0  0  0  0  0  0  0  0
   10.7164    3.9238    6.7791 H   0  0  0  0  0  0  0  0  0  0  0  0
   10.7164    5.3412    5.7353 H   0  0  0  0  0  0  0  0  0  0  0  0
   12.9939    4.7349    4.8917 H   0  0  0  0  0  0  0  0  0  0  0  0
   12.9939    3.2982    5.9497 H   0  0  0  0  0  0  0  0  0  0  0  0
   12.4029    5.6349    7.6185 H   0  0  0  0  0  0  0  0  0  0  0  0
  1  2  1  0  0  0  0
  1 15  1  0  0  0  0
  1 16  1  0  0  0  0
  1 17  1  0  0  0  0
  2  3  1  0  0  0  0
  2 18  1  0  0  0  0
  2 19  1  0  0  0  0
  3  4  1  0  0  0  0
  3 20  1  0  0  0  0
  3 21  1  0  0  0  0
  4  5  1  0  0  0  0
  4 22  1  0  0  0  0
  4 23  1  0  0  0  0
  5  6  1  0  0  0  0
  5 24  1  0  0  0  0
  5 25  1  0  0  0  0
  6  7  1  0  0  0  0
  6 26  1  0  0  0  0
  6 27  1  0  0  0  0
  7  8  1  0  0  0  0
  7 28  1  0  0  0  0
  7 29  1  0  0  0  0
  8  9  1  0  0  0  0
  8 30  1  0  0  0  0
  8 31  1  0  0  0  0
  9 10  1  0  0  0  0
  9 32  1  0  0  0  0
  9 33  1  0  0  0  0
 10 11  1  0  0  0  0
 10 34  1  0  0  0  0
 10 35  1  0  0  0  0
 11 12  1  0  0  0  0
 11 36  1  0  0  0  0
 11 37  1  0  0  0  0
 12 13  1  0  0  0  0
 12 38  1  0  0  0  0
 12 39  1  0  0  0  0
 13 14  2  0  0  0  0
 13 40  1  0  0  0  0
M  END
$$$$
