
 OpenBabel07122215493D

 26 26  0  0  0  0  0  0  0  0999 V2000
    1.0631   -0.0077   -0.0626 C   0  0  0  0  0  0  0  0  0  0  0  0
    2.5812    0.0014   -0.0572 C   0  0  0  0  0  0  0  0  0  0  0  0
    3.1122    1.1887    0.7393 C   0  0  0  0  0  0  0  0  0  0  0  0
    4.6369    1.2037    0.7467 C   0  0  0  0  0  0  0  0  0  0  0  0
    5.1584    2.3964    1.5431 C   0  0  0  0  0  0  0  0  0  0  0  0
    6.6621    2.4001    1.5745 C   0  0  0  0  0  0  0  0  0  0  0  0
    7.3390    1.8351    2.6522 C   0  0  0  0  0  0  0  0  0  0  0  0
    8.7295    1.8447    2.6470 C   0  0  0  0  0  0  0  0  0  0  0  0
    9.4015    2.4010    1.5668 C   0  0  0  0  0  0  0  0  0  0  0  0
    8.6516    2.9239    0.5267 C   0  0  0  0  0  0  0  0  0  0  0  0
    7.3011    2.9364    0.5080 N   0  0  0  0  0  0  0  0  0  0  0  0
    0.6902   -0.8610   -0.6361 H   0  0  0  0  0  0  0  0  0  0  0  0
    0.6706    0.9084   -0.5154 H   0  0  0  0  0  0  0  0  0  0  0  0
    0.6712   -0.0815    0.9570 H   0  0  0  0  0  0  0  0  0  0  0  0
    2.9494    0.0489   -1.0886 H   0  0  0  0  0  0  0  0  0  0  0  0
    2.9501   -0.9350    0.3773 H   0  0  0  0  0  0  0  0  0  0  0  0
    2.7396    1.1385    1.7698 H   0  0  0  0  0  0  0  0  0  0  0  0
    2.7367    2.1235    0.3052 H   0  0  0  0  0  0  0  0  0  0  0  0
    5.0122    1.2469   -0.2838 H   0  0  0  0  0  0  0  0  0  0  0  0
    5.0127    0.2682    1.1807 H   0  0  0  0  0  0  0  0  0  0  0  0
    4.7641    2.3729    2.5666 H   0  0  0  0  0  0  0  0  0  0  0  0
    4.8068    3.3342    1.0958 H   0  0  0  0  0  0  0  0  0  0  0  0
    6.7951    1.3950    3.4807 H   0  0  0  0  0  0  0  0  0  0  0  0
    9.2806    1.4191    3.4803 H   0  0  0  0  0  0  0  0  0  0  0  0
   10.4846    2.4251    1.5334 H   0  0  0  0  0  0  0  0  0  0  0  0
    9.1295    3.3592   -0.3454 H   0  0  0  0  0  0  0  0  0  0  0  0
  1  2  1  0  0  0  0
  1 12  1  0  0  0  0
  1 13  1  0  0  0  0
  1 14  1  0  0  0  0
  2  3  1  0  0  0  0
  2 15  1  0  0  0  0
  2 16  1  0  0  0  0
  3  4  1  0  0  0  0
  3 17  1  0  0  0  0
  3 18  1  0  0  0  0
  4  5  1  0  0  0  0
  4 19  1  0  0  0  0
  4 20  1  0  0  0  0
  5  6  1  0  0  0  0
  5 21  1  0  0  0  0
  5 22  1  0  0  0  0
  6  7  1  0  0  0  0
  6 11  2  0  0  0  0
  7  8  2  0  0  0  0
  7 23  1  0  0  0  0
  8  9  1  0  0  0  0
  8 24  1  0  0  0  0
  9 10  2  0  0  0  0
  9 25  1  0  0  0  0
 10 11  1  0  0  0  0
 10 26  1  0  0  0  0
M  END
$$$$
