
 OpenBabel07122215493D

 30 29  0  0  0  0  0  0  0  0999 V2000
    0.9497   -0.0298   -0.0145 C   0  0  0  0  0  0  0  0  0  0  0  0
    2.4833   -0.0800   -0.0406 C   0  0  0  0  0  0  0  0  0  0  0  0
    2.9772   -1.4148   -0.6269 C   0  0  0  0  0  0  0  0  0  0  0  0
    2.5018   -2.5993    0.1993 C   0  0  0  0  0  0  0  0  0  0  0  0
    2.9908   -3.9005   -0.3508 C   0  0  0  0  0  0  0  0  0  0  0  0
    2.6647   -5.0810    0.2090 C   0  0  0  0  0  0  0  0  0  0  0  0
    3.1727   -6.3601   -0.3855 C   0  0  0  0  0  0  0  0  0  0  0  0
    1.7976   -5.1347    1.4449 C   0  0  0  0  0  0  0  0  0  0  0  0
    1.5848   -6.4626    1.8849 O   0  0  0  0  0  0  0  0  0  0  0  0
    3.0175    1.0993   -0.8625 C   0  0  0  0  0  0  0  0  0  0  0  0
    4.5245    1.1695   -0.8746 C   0  0  0  0  0  0  0  0  0  0  0  0
    5.1456    2.0150   -1.5173 O   0  0  0  0  0  0  0  0  0  0  0  0
    0.5252   -0.8138    0.6199 H   0  0  0  0  0  0  0  0  0  0  0  0
    0.5415   -0.1575   -1.0232 H   0  0  0  0  0  0  0  0  0  0  0  0
    0.5910    0.9216    0.3873 H   0  0  0  0  0  0  0  0  0  0  0  0
    2.8507    0.0101    0.9909 H   0  0  0  0  0  0  0  0  0  0  0  0
    4.0728   -1.4399   -0.6554 H   0  0  0  0  0  0  0  0  0  0  0  0
    2.6358   -1.5148   -1.6648 H   0  0  0  0  0  0  0  0  0  0  0  0
    1.4089   -2.6331    0.2047 H   0  0  0  0  0  0  0  0  0  0  0  0
    2.8519   -2.4755    1.2315 H   0  0  0  0  0  0  0  0  0  0  0  0
    3.6161   -3.8724   -1.2414 H   0  0  0  0  0  0  0  0  0  0  0  0
    3.7907   -6.1828   -1.2725 H   0  0  0  0  0  0  0  0  0  0  0  0
    2.3364   -6.9940   -0.6952 H   0  0  0  0  0  0  0  0  0  0  0  0
    3.7850   -6.8991    0.3430 H   0  0  0  0  0  0  0  0  0  0  0  0
    0.8182   -4.6821    1.2498 H   0  0  0  0  0  0  0  0  0  0  0  0
    2.2724   -4.5856    2.2654 H   0  0  0  0  0  0  0  0  0  0  0  0
    1.1053   -6.9157    1.1726 H   0  0  0  0  0  0  0  0  0  0  0  0
    2.6502    2.0397   -0.4373 H   0  0  0  0  0  0  0  0  0  0  0  0
    2.6702    1.0233   -1.8988 H   0  0  0  0  0  0  0  0  0  0  0  0
    5.0680    0.4260   -0.2699 H   0  0  0  0  0  0  0  0  0  0  0  0
  1  2  1  0  0  0  0
  1 13  1  0  0  0  0
  1 14  1  0  0  0  0
  1 15  1  0  0  0  0
  2  3  1  0  0  0  0
  2 10  1  0  0  0  0
  2 16  1  0  0  0  0
  3  4  1  0  0  0  0
  3 17  1  0  0  0  0
  3 18  1  0  0  0  0
  4  5  1  0  0  0  0
  4 19  1  0  0  0  0
  4 20  1  0  0  0  0
  5  6  2  0  0  0  0
  5 21  1  0  0  0  0
  6  7  1  0  0  0  0
  6  8  1  0  0  0  0
  7 22  1  0  0  0  0
  7 23  1  0  0  0  0
  7 24  1  0  0  0  0
  8  9  1  0  0  0  0
  8 25  1  0  0  0  0
  8 26  1  0  0  0  0
  9 27  1  0  0  0  0
 10 11  1  0  0  0  0
 10 28  1  0  0  0  0
 10 29  1  0  0  0  0
 11 12  2  0  0  0  0
 11 30  1  0  0  0  0
M  END
$$$$
