
 OpenBabel07122215493D

 29 29  0  0  1  0  0  0  0  0999 V2000
    1.6373    1.0220    2.5249 C   0  0  0  0  0  0  0  0  0  0  0  0
    2.9774    0.2886    2.5339 C   0  0  0  0  0  0  0  0  0  0  0  0
    4.1140    1.3134    2.6126 C   0  0  0  0  0  0  0  0  0  0  0  0
    3.1070   -0.6371    1.2986 C   0  0  1  0  0  0  0  0  0  0  0  0
    4.5506   -1.0980    1.0580 C   0  0  0  0  0  0  0  0  0  0  0  0
    5.0312   -1.9970    2.1997 C   0  0  0  0  0  0  0  0  0  0  0  0
    4.1674   -3.2598    2.3068 C   0  0  2  0  0  0  0  0  0  0  0  0
    4.3736   -4.1599    1.0872 C   0  0  0  0  0  0  0  0  0  0  0  0
    2.6858   -2.9121    2.4819 C   0  0  0  0  0  0  0  0  0  0  0  0
    2.2280   -1.8782    1.4682 C   0  0  0  0  0  0  0  0  0  0  0  0
    1.1564   -1.9943    0.8821 O   0  0  0  0  0  0  0  0  0  0  0  0
    1.5472    1.6562    3.4128 H   0  0  0  0  0  0  0  0  0  0  0  0
    0.7976    0.3206    2.5303 H   0  0  0  0  0  0  0  0  0  0  0  0
    1.5483    1.6597    1.6395 H   0  0  0  0  0  0  0  0  0  0  0  0
    3.0079   -0.3090    3.4530 H   0  0  0  0  0  0  0  0  0  0  0  0
    4.1448    1.9250    1.7051 H   0  0  0  0  0  0  0  0  0  0  0  0
    5.0905    0.8330    2.7318 H   0  0  0  0  0  0  0  0  0  0  0  0
    3.9961    1.9679    3.4792 H   0  0  0  0  0  0  0  0  0  0  0  0
    2.7629   -0.1117    0.3977 H   0  0  0  0  0  0  0  0  0  0  0  0
    5.2223   -0.2418    0.9416 H   0  0  0  0  0  0  0  0  0  0  0  0
    4.6208   -1.6225    0.0993 H   0  0  0  0  0  0  0  0  0  0  0  0
    4.9905   -1.4605    3.1563 H   0  0  0  0  0  0  0  0  0  0  0  0
    6.0839   -2.2564    2.0469 H   0  0  0  0  0  0  0  0  0  0  0  0
    4.4920   -3.8209    3.1919 H   0  0  0  0  0  0  0  0  0  0  0  0
    4.0448   -3.6820    0.1592 H   0  0  0  0  0  0  0  0  0  0  0  0
    3.8048   -5.0874    1.1930 H   0  0  0  0  0  0  0  0  0  0  0  0
    5.4322   -4.4153    0.9773 H   0  0  0  0  0  0  0  0  0  0  0  0
    2.5012   -2.5050    3.4821 H   0  0  0  0  0  0  0  0  0  0  0  0
    2.0655   -3.8099    2.3811 H   0  0  0  0  0  0  0  0  0  0  0  0
  1  2  1  0  0  0  0
  1 12  1  0  0  0  0
  1 13  1  0  0  0  0
  1 14  1  0  0  0  0
  2  3  1  0  0  0  0
  2 15  1  0  0  0  0
  3 16  1  0  0  0  0
  3 17  1  0  0  0  0
  3 18  1  0  0  0  0
  4  5  1  0  0  0  0
  4 10  1  0  0  0  0
  4  2  1  0  0  0  0
  4 19  1  6  0  0  0
  5  6  1  0  0  0  0
  5 20  1  0  0  0  0
  5 21  1  0  0  0  0
  6  7  1  0  0  0  0
  6 22  1  0  0  0  0
  6 23  1  0  0  0  0
  7  8  1  0  0  0  0
  7  9  1  0  0  0  0
  7 24  1  1  0  0  0
  8 25  1  0  0  0  0
  8 26  1  0  0  0  0
  8 27  1  0  0  0  0
  9 10  1  0  0  0  0
  9 28  1  0  0  0  0
  9 29  1  0  0  0  0
 10 11  2  0  0  0  0
M  END
$$$$
