
 OpenBabel07122215493D

 23 23  0  0  0  0  0  0  0  0999 V2000
    1.1887    0.0383   -0.5787 C   0  0  0  0  0  0  0  0  0  0  0  0
    2.5907    0.1578   -0.2792 N   0  0  0  0  0  0  0  0  0  0  0  0
    3.1651    0.9953    0.6744 C   0  0  0  0  0  0  0  0  0  0  0  0
    4.4084    1.5416    0.2435 C   0  0  0  0  0  0  0  0  0  0  0  0
    5.2179    2.3364    1.0564 C   0  0  0  0  0  0  0  0  0  0  0  0
    4.7787    2.6665    2.3243 C   0  0  0  0  0  0  0  0  0  0  0  0
    3.5535    2.1694    2.7774 C   0  0  0  0  0  0  0  0  0  0  0  0
    2.7263    1.3281    1.9853 C   0  0  0  0  0  0  0  0  0  0  0  0
    1.4593    0.9073    2.6977 C   0  0  0  0  0  0  0  0  0  0  0  0
    1.0409    1.4468    3.7256 O   0  0  0  0  0  0  0  0  0  0  0  0
    0.8593   -0.1306    2.1077 O   0  0  0  0  0  0  0  0  0  0  0  0
   -0.5463   -0.4095    2.2871 C   0  0  0  0  0  0  0  0  0  0  0  0
    1.0179   -0.6852   -1.3786 H   0  0  0  0  0  0  0  0  0  0  0  0
    0.7435    1.0063   -0.8142 H   0  0  0  0  0  0  0  0  0  0  0  0
    0.6183   -0.4200    0.1957 H   0  0  0  0  0  0  0  0  0  0  0  0
    3.1503   -0.6643   -0.4953 H   0  0  0  0  0  0  0  0  0  0  0  0
    4.7405    1.3661   -0.7815 H   0  0  0  0  0  0  0  0  0  0  0  0
    6.1816    2.6908    0.6975 H   0  0  0  0  0  0  0  0  0  0  0  0
    5.3801    3.3109    2.9613 H   0  0  0  0  0  0  0  0  0  0  0  0
    3.2467    2.4349    3.7892 H   0  0  0  0  0  0  0  0  0  0  0  0
   -0.9062   -0.9200    1.3796 H   0  0  0  0  0  0  0  0  0  0  0  0
   -1.1582    0.4925    2.3882 H   0  0  0  0  0  0  0  0  0  0  0  0
   -0.6685   -1.1150    3.1048 H   0  0  0  0  0  0  0  0  0  0  0  0
  1  2  1  0  0  0  0
  1 13  1  0  0  0  0
  1 14  1  0  0  0  0
  1 15  1  0  0  0  0
  2  3  1  0  0  0  0
  2 16  1  0  0  0  0
  3  4  2  0  0  0  0
  3  8  1  0  0  0  0
  4  5  1  0  0  0  0
  4 17  1  0  0  0  0
  5  6  2  0  0  0  0
  5 18  1  0  0  0  0
  6  7  1  0  0  0  0
  6 19  1  0  0  0  0
  7  8  2  0  0  0  0
  7 20  1  0  0  0  0
  8  9  1  0  0  0  0
  9 10  2  0  0  0  0
  9 11  1  0  0  0  0
 11 12  1  0  0  0  0
 12 21  1  0  0  0  0
 12 22  1  0  0  0  0
 12 23  1  0  0  0  0
M  END
$$$$
