
 OpenBabel07122215493D

 28 27  0  0  0  0  0  0  0  0999 V2000
    0.8828   -0.0216    0.0138 C   0  0  0  0  0  0  0  0  0  0  0  0
    2.3992   -0.0201    0.0060 C   0  0  0  0  0  0  0  0  0  0  0  0
    2.9237    0.2594   -1.3960 C   0  0  0  0  0  0  0  0  0  0  0  0
    4.4450    0.2619   -1.4085 C   0  0  0  0  0  0  0  0  0  0  0  0
    4.9611    0.5418   -2.8127 C   0  0  0  0  0  0  0  0  0  0  0  0
    6.4825    0.5443   -2.8255 C   0  0  0  0  0  0  0  0  0  0  0  0
    7.0062    0.8238   -4.2278 C   0  0  0  0  0  0  0  0  0  0  0  0
    8.5275    0.8252   -4.2347 C   0  0  0  0  0  0  0  0  0  0  0  0
    9.0595    1.1000   -5.6134 C   0  0  0  0  0  0  0  0  0  0  0  0
   10.2620    1.1495   -5.8613 O   0  0  0  0  0  0  0  0  0  0  0  0
    0.5088   -0.2224    1.0211 H   0  0  0  0  0  0  0  0  0  0  0  0
    0.4933   -0.7920   -0.6595 H   0  0  0  0  0  0  0  0  0  0  0  0
    0.4933    0.9480   -0.3126 H   0  0  0  0  0  0  0  0  0  0  0  0
    2.7698   -0.9903    0.3568 H   0  0  0  0  0  0  0  0  0  0  0  0
    2.7698    0.7415    0.7020 H   0  0  0  0  0  0  0  0  0  0  0  0
    2.5501    1.2293   -1.7471 H   0  0  0  0  0  0  0  0  0  0  0  0
    2.5501   -0.5018   -2.0921 H   0  0  0  0  0  0  0  0  0  0  0  0
    4.8217   -0.7078   -1.0607 H   0  0  0  0  0  0  0  0  0  0  0  0
    4.8217    1.0241   -0.7155 H   0  0  0  0  0  0  0  0  0  0  0  0
    4.5843    1.5114   -3.1605 H   0  0  0  0  0  0  0  0  0  0  0  0
    4.5843   -0.2204   -3.5057 H   0  0  0  0  0  0  0  0  0  0  0  0
    6.8562   -0.4257   -2.4749 H   0  0  0  0  0  0  0  0  0  0  0  0
    6.8562    1.3058   -2.1298 H   0  0  0  0  0  0  0  0  0  0  0  0
    6.6278    1.7916   -4.5807 H   0  0  0  0  0  0  0  0  0  0  0  0
    6.6278    0.0654   -4.9248 H   0  0  0  0  0  0  0  0  0  0  0  0
    8.9056   -0.1494   -3.9088 H   0  0  0  0  0  0  0  0  0  0  0  0
    8.9056    1.6004   -3.5600 H   0  0  0  0  0  0  0  0  0  0  0  0
    8.3148    1.2591   -6.4111 H   0  0  0  0  0  0  0  0  0  0  0  0
  1  2  1  0  0  0  0
  1 11  1  0  0  0  0
  1 12  1  0  0  0  0
  1 13  1  0  0  0  0
  2  3  1  0  0  0  0
  2 14  1  0  0  0  0
  2 15  1  0  0  0  0
  3  4  1  0  0  0  0
  3 16  1  0  0  0  0
  3 17  1  0  0  0  0
  4  5  1  0  0  0  0
  4 18  1  0  0  0  0
  4 19  1  0  0  0  0
  5  6  1  0  0  0  0
  5 20  1  0  0  0  0
  5 21  1  0  0  0  0
  6  7  1  0  0  0  0
  6 22  1  0  0  0  0
  6 23  1  0  0  0  0
  7  8  1  0  0  0  0
  7 24  1  0  0  0  0
  7 25  1  0  0  0  0
  8  9  1  0  0  0  0
  8 26  1  0  0  0  0
  8 27  1  0  0  0  0
  9 10  2  0  0  0  0
  9 28  1  0  0  0  0
M  END
$$$$
