
 OpenBabel07122215493D

 28 27  0  0  0  0  0  0  0  0999 V2000
    1.0550   -0.0025   -0.0481 C   0  0  0  0  0  0  0  0  0  0  0  0
    2.5709   -0.0093   -0.0535 C   0  0  0  0  0  0  0  0  0  0  0  0
    3.0869   -1.1299   -0.9439 C   0  0  0  0  0  0  0  0  0  0  0  0
    4.6041   -1.1477   -0.9581 C   0  0  0  0  0  0  0  0  0  0  0  0
    5.1018   -2.2749   -1.8538 C   0  0  0  0  0  0  0  0  0  0  0  0
    6.6154   -2.2729   -1.8521 C   0  0  0  0  0  0  0  0  0  0  0  0
    7.1990   -3.3686   -2.7228 C   0  0  0  0  0  0  0  0  0  0  0  0
    8.7155   -3.3870   -2.7374 C   0  0  0  0  0  0  0  0  0  0  0  0
    9.5097   -2.3808   -1.9379 C   0  0  0  0  0  0  0  0  0  0  0  0
    9.3087   -4.2369   -3.4128 O   0  0  0  0  0  0  0  0  0  0  0  0
    0.6814    0.8015    0.5908 H   0  0  0  0  0  0  0  0  0  0  0  0
    0.6662   -0.9540    0.3288 H   0  0  0  0  0  0  0  0  0  0  0  0
    0.6662    0.1496   -1.0601 H   0  0  0  0  0  0  0  0  0  0  0  0
    2.9434   -0.1419    0.9691 H   0  0  0  0  0  0  0  0  0  0  0  0
    2.9434    0.9568   -0.4136 H   0  0  0  0  0  0  0  0  0  0  0  0
    2.7133   -0.9974   -1.9665 H   0  0  0  0  0  0  0  0  0  0  0  0
    2.7133   -2.0961   -0.5838 H   0  0  0  0  0  0  0  0  0  0  0  0
    4.9875   -1.2822    0.0616 H   0  0  0  0  0  0  0  0  0  0  0  0
    4.9875   -0.1848   -1.3195 H   0  0  0  0  0  0  0  0  0  0  0  0
    4.7285   -2.1375   -2.8751 H   0  0  0  0  0  0  0  0  0  0  0  0
    4.7285   -3.2388   -1.4891 H   0  0  0  0  0  0  0  0  0  0  0  0
    6.9647   -2.3995   -0.8196 H   0  0  0  0  0  0  0  0  0  0  0  0
    6.9647   -1.2957   -2.2088 H   0  0  0  0  0  0  0  0  0  0  0  0
    6.8545   -3.2420   -3.7562 H   0  0  0  0  0  0  0  0  0  0  0  0
    6.8545   -4.3466   -2.3660 H   0  0  0  0  0  0  0  0  0  0  0  0
    8.8981   -1.6754   -1.3773 H   0  0  0  0  0  0  0  0  0  0  0  0
   10.1282   -1.7944   -2.6205 H   0  0  0  0  0  0  0  0  0  0  0  0
   10.1282   -2.9133   -1.2124 H   0  0  0  0  0  0  0  0  0  0  0  0
  1  2  1  0  0  0  0
  1 11  1  0  0  0  0
  1 12  1  0  0  0  0
  1 13  1  0  0  0  0
  2  3  1  0  0  0  0
  2 14  1  0  0  0  0
  2 15  1  0  0  0  0
  3  4  1  0  0  0  0
  3 16  1  0  0  0  0
  3 17  1  0  0  0  0
  4  5  1  0  0  0  0
  4 18  1  0  0  0  0
  4 19  1  0  0  0  0
  5  6  1  0  0  0  0
  5 20  1  0  0  0  0
  5 21  1  0  0  0  0
  6  7  1  0  0  0  0
  6 22  1  0  0  0  0
  6 23  1  0  0  0  0
  7  8  1  0  0  0  0
  7 24  1  0  0  0  0
  7 25  1  0  0  0  0
  8  9  1  0  0  0  0
  8 10  2  0  0  0  0
  9 26  1  0  0  0  0
  9 27  1  0  0  0  0
  9 28  1  0  0  0  0
M  END
$$$$
