
 OpenBabel07122215493D

 32 31  0  0  0  0  0  0  0  0999 V2000
    0.9564    0.0742   -0.0700 C   0  0  0  0  0  0  0  0  0  0  0  0
    2.4730    0.0666   -0.0732 C   0  0  0  0  0  0  0  0  0  0  0  0
    2.9975   -1.2502   -0.6304 C   0  0  0  0  0  0  0  0  0  0  0  0
    4.5191   -1.2638   -0.6361 C   0  0  0  0  0  0  0  0  0  0  0  0
    5.0343   -2.5839   -1.1947 C   0  0  0  0  0  0  0  0  0  0  0  0
    6.5549   -2.5976   -1.2005 C   0  0  0  0  0  0  0  0  0  0  0  0
    7.0885   -3.9121   -1.7567 C   0  0  0  0  0  0  0  0  0  0  0  0
    8.6093   -3.8951   -1.7496 C   0  0  0  0  0  0  0  0  0  0  0  0
    9.1032   -5.1342   -2.2738 O   0  0  0  0  0  0  0  0  0  0  0  0
   10.4306   -5.3788   -2.3774 C   0  0  0  0  0  0  0  0  0  0  0  0
   11.4061   -4.3239   -1.9310 C   0  0  0  0  0  0  0  0  0  0  0  0
   10.8342   -6.4489   -2.8301 O   0  0  0  0  0  0  0  0  0  0  0  0
    0.5825    1.0203    0.3303 H   0  0  0  0  0  0  0  0  0  0  0  0
    0.5668   -0.7407    0.5484 H   0  0  0  0  0  0  0  0  0  0  0  0
    0.5668   -0.0494   -1.0855 H   0  0  0  0  0  0  0  0  0  0  0  0
    2.8435    0.2142    0.9480 H   0  0  0  0  0  0  0  0  0  0  0  0
    2.8435    0.9023   -0.6784 H   0  0  0  0  0  0  0  0  0  0  0  0
    2.6236   -1.3976   -1.6512 H   0  0  0  0  0  0  0  0  0  0  0  0
    2.6236   -2.0855   -0.0255 H   0  0  0  0  0  0  0  0  0  0  0  0
    4.8960   -1.1188    0.3838 H   0  0  0  0  0  0  0  0  0  0  0  0
    4.8960   -0.4307   -1.2423 H   0  0  0  0  0  0  0  0  0  0  0  0
    4.6574   -2.7274   -2.2146 H   0  0  0  0  0  0  0  0  0  0  0  0
    4.6574   -3.4159   -0.5877 H   0  0  0  0  0  0  0  0  0  0  0  0
    6.9279   -2.4481   -0.1795 H   0  0  0  0  0  0  0  0  0  0  0  0
    6.9279   -1.7606   -1.8042 H   0  0  0  0  0  0  0  0  0  0  0  0
    6.7205   -4.0741   -2.7774 H   0  0  0  0  0  0  0  0  0  0  0  0
    6.7205   -4.7575   -1.1623 H   0  0  0  0  0  0  0  0  0  0  0  0
    8.9628   -3.7733   -0.7200 H   0  0  0  0  0  0  0  0  0  0  0  0
    8.9628   -3.0713   -2.3790 H   0  0  0  0  0  0  0  0  0  0  0  0
   10.9499   -3.4138   -1.5459 H   0  0  0  0  0  0  0  0  0  0  0  0
   12.0295   -4.0383   -2.7827 H   0  0  0  0  0  0  0  0  0  0  0  0
   12.0295   -4.7364   -1.1329 H   0  0  0  0  0  0  0  0  0  0  0  0
  1  2  1  0  0  0  0
  1 13  1  0  0  0  0
  1 14  1  0  0  0  0
  1 15  1  0  0  0  0
  2  3  1  0  0  0  0
  2 16  1  0  0  0  0
  2 17  1  0  0  0  0
  3  4  1  0  0  0  0
  3 18  1  0  0  0  0
  3 19  1  0  0  0  0
  4  5  1  0  0  0  0
  4 20  1  0  0  0  0
  4 21  1  0  0  0  0
  5  6  1  0  0  0  0
  5 22  1  0  0  0  0
  5 23  1  0  0  0  0
  6  7  1  0  0  0  0
  6 24  1  0  0  0  0
  6 25  1  0  0  0  0
  7  8  1  0  0  0  0
  7 26  1  0  0  0  0
  7 27  1  0  0  0  0
  8  9  1  0  0  0  0
  8 28  1  0  0  0  0
  8 29  1  0  0  0  0
  9 10  1  0  0  0  0
 10 11  1  0  0  0  0
 10 12  2  0  0  0  0
 11 30  1  0  0  0  0
 11 31  1  0  0  0  0
 11 32  1  0  0  0  0
M  END
$$$$
