
 OpenBabel07122215493D

 27 27  0  0  1  0  0  0  0  0999 V2000
    2.0743   -1.2547    0.0591 C   0  0  0  0  0  0  0  0  0  0  0  0
    0.6818   -0.7517    0.4050 C   0  0  2  0  0  0  0  0  0  0  0  0
   -0.4101   -1.4897   -0.3657 C   0  0  0  0  0  0  0  0  0  0  0  0
   -1.8035   -0.9852    0.0270 C   0  0  0  0  0  0  0  0  0  0  0  0
   -1.9771    0.5348   -0.1965 C   0  0  2  0  0  0  0  0  0  0  0  0
   -0.8132    1.3070    0.4509 C   0  0  0  0  0  0  0  0  0  0  0  0
    0.5241    0.7233    0.0851 C   0  0  0  0  0  0  0  0  0  0  0  0
    1.4269    1.4208   -0.3653 O   0  0  0  0  0  0  0  0  0  0  0  0
   -3.3417    1.0107    0.3152 C   0  0  0  0  0  0  0  0  0  0  0  0
   -3.4961    1.9641    1.2532 C   0  0  0  0  0  0  0  0  0  0  0  0
   -4.5811    0.3765   -0.2643 C   0  0  0  0  0  0  0  0  0  0  0  0
    2.1687   -2.3231    0.2757 H   0  0  0  0  0  0  0  0  0  0  0  0
    2.8290   -0.7229    0.6500 H   0  0  0  0  0  0  0  0  0  0  0  0
    2.3073   -1.0920   -0.9981 H   0  0  0  0  0  0  0  0  0  0  0  0
    0.5292   -0.8785    1.4849 H   0  0  0  0  0  0  0  0  0  0  0  0
   -0.3498   -2.5660   -0.1683 H   0  0  0  0  0  0  0  0  0  0  0  0
   -0.2682   -1.3492   -1.4453 H   0  0  0  0  0  0  0  0  0  0  0  0
   -1.9905   -1.2248    1.0813 H   0  0  0  0  0  0  0  0  0  0  0  0
   -2.5410   -1.5451   -0.5598 H   0  0  0  0  0  0  0  0  0  0  0  0
   -1.9397    0.7218   -1.2805 H   0  0  0  0  0  0  0  0  0  0  0  0
   -0.8683    1.2630    1.5457 H   0  0  0  0  0  0  0  0  0  0  0  0
   -0.8327    2.3597    0.1466 H   0  0  0  0  0  0  0  0  0  0  0  0
   -2.6622    2.4830    1.7136 H   0  0  0  0  0  0  0  0  0  0  0  0
   -4.4775    2.2663    1.6036 H   0  0  0  0  0  0  0  0  0  0  0  0
   -4.3544   -0.3569   -1.0426 H   0  0  0  0  0  0  0  0  0  0  0  0
   -5.2261    1.1369   -0.7178 H   0  0  0  0  0  0  0  0  0  0  0  0
   -5.1445   -0.1367    0.5232 H   0  0  0  0  0  0  0  0  0  0  0  0
  1  2  1  0  0  0  0
  1 12  1  0  0  0  0
  1 13  1  0  0  0  0
  1 14  1  0  0  0  0
  2  3  1  0  0  0  0
  2  7  1  0  0  0  0
  2 15  1  1  0  0  0
  3  4  1  0  0  0  0
  3 16  1  0  0  0  0
  3 17  1  0  0  0  0
  4  5  1  0  0  0  0
  4 18  1  0  0  0  0
  4 19  1  0  0  0  0
  5  6  1  0  0  0  0
  5  9  1  0  0  0  0
  5 20  1  6  0  0  0
  6  7  1  0  0  0  0
  6 21  1  0  0  0  0
  6 22  1  0  0  0  0
  7  8  2  0  0  0  0
  9 10  2  0  0  0  0
  9 11  1  0  0  0  0
 10 23  1  0  0  0  0
 10 24  1  0  0  0  0
 11 25  1  0  0  0  0
 11 26  1  0  0  0  0
 11 27  1  0  0  0  0
M  END
$$$$
